Circuit: * AD8672 SPICE Macro-model

Fatal Error: No analysis request found.
