Circuit: * Z:\Users\aviatorblue\Documents\Senior Project\Electrical_Design\Photodiode_Amplifier\Draft1.asc

WARNING: Less than two connections to node NC_01.  This node is used by V1.
.OP point found by inspection.

Date: Mon Mar 14 22:26:23 2016
Total elapsed time: 0.078 seconds.

tnom = 27
temp = 27
method = modified trap
totiter = 4128
traniter = 4128
tranpoints = 2065
accept = 1532
rejected = 533
matrix size = 2
fillins = 0
solver = Normal
Matrix Compiler1: 18 bytes object code size  0.1/0.1/[0.1]
Matrix Compiler2: 82 bytes object code size  0.1/0.1/[0.1]


