Circuit: * Z:\Users\aviatorblue\Documents\Senior Project\Electrical_Design\Photodiode_Amplifier\transimpedance_amplifier.asc

Photodiode_current: Removing PWL point (0.000382962,-3.2e-010)
Photodiode_current: Removing PWL point (0.006511,-2.4e-010)
Photodiode_current: Removing PWL point (0.019533,-3.2e-010)
Photodiode_current: Removing PWL point (0.02298,-2.4e-010)
Photodiode_current: Removing PWL point (0.026044,-2.4e-010)
Photodiode_current: Removing PWL point (0.030257,-2.4e-010)
Photodiode_current: Removing PWL point (0.036002,-2.4e-010)
Photodiode_current: Removing PWL point (0.042513,-2.4e-010)
Photodiode_current: Removing PWL point (0.058599,-1.6e-010)
Photodiode_current: Removing PWL point (0.065493,-2.4e-010)
Photodiode_current: Removing PWL point (0.069323,-2.4e-010)
Photodiode_current: Removing PWL point (0.070472,-1.6e-010)
Photodiode_current: Removing PWL point (0.078898,-2.4e-010)
Photodiode_current: Removing PWL point (0.087324,-2.4e-010)
Photodiode_current: Removing PWL point (0.09575,-2.4e-010)
Photodiode_current: Removing PWL point (0.101112,-2.4e-010)
Photodiode_current: Removing PWL point (0.104559,-1.6e-010)
Photodiode_current: Removing PWL point (0.108006,-1.6e-010)
Photodiode_current: Removing PWL point (0.110304,-2.4e-010)
Photodiode_current: Removing PWL point (0.112219,-2.4e-010)
Photodiode_current: Removing PWL point (0.120645,-2.4e-010)
Photodiode_current: Removing PWL point (0.135199,-2.4e-010)
Photodiode_current: Removing PWL point (0.139412,-2.4e-010)
Photodiode_current: Removing PWL point (0.147838,-2.4e-010)
Photodiode_current: Removing PWL point (0.14937,-2.4e-010)
Photodiode_current: Removing PWL point (0.155881,-1.6e-010)
Photodiode_current: Removing PWL point (0.158945,8e-011)
Photodiode_current: Removing PWL point (0.160094,1.6e-010)
Photodiode_current: Removing PWL point (0.163158,8e-011)
Photodiode_current: Removing PWL point (0.168137,-2.4e-010)
Photodiode_current: Removing PWL point (0.171584,-2.4e-010)
Photodiode_current: Removing PWL point (0.174265,-2.4e-010)
Photodiode_current: Removing PWL point (0.184223,-2.4e-010)
Photodiode_current: Removing PWL point (0.190351,-2.4e-010)
Photodiode_current: Removing PWL point (0.197628,-1.6e-010)
Photodiode_current: Removing PWL point (0.201841,7.2e-010)
Photodiode_current: Removing PWL point (0.204139,4e-010)
Photodiode_current: Removing PWL point (0.209884,0)
Photodiode_current: Removing PWL point (0.212948,-1.6e-010)
Photodiode_current: Removing PWL point (0.214097,-2.4e-010)
Photodiode_current: Removing PWL point (0.217161,-2.4e-010)
Photodiode_current: Removing PWL point (0.219076,-2.4e-010)
Photodiode_current: Removing PWL point (0.245503,-2.4e-010)
Photodiode_current: Removing PWL point (0.249716,-2.4e-010)
Photodiode_current: Removing PWL point (0.252014,-1.6e-010)
Photodiode_current: Removing PWL point (0.253546,-1.6e-010)
Photodiode_current: Removing PWL point (0.258908,7.2e-010)
Photodiode_current: Removing PWL point (0.26044,5.6e-010)
Photodiode_current: Removing PWL point (0.262355,6.4e-010)
Photodiode_current: Removing PWL point (0.266568,0)
Photodiode_current: Removing PWL point (0.269249,-1.6e-010)
Photodiode_current: Removing PWL point (0.270398,-2.4e-010)
Photodiode_current: Removing PWL point (0.286101,-2.4e-010)
Photodiode_current: Removing PWL point (0.291463,-2.4e-010)
Photodiode_current: Removing PWL point (0.293378,-2.4e-010)
Photodiode_current: Removing PWL point (0.304102,-2.4e-010)
Photodiode_current: Removing PWL point (0.306783,-2.4e-010)
Photodiode_current: Removing PWL point (0.308698,-2.4e-010)
Photodiode_current: Removing PWL point (0.31023,-2.4e-010)
Photodiode_current: Removing PWL point (0.313677,-2.4e-010)
Photodiode_current: Removing PWL point (0.315592,-1.6e-010)
Photodiode_current: Removing PWL point (0.319039,-2.4e-010)
Photodiode_current: Removing PWL point (0.321337,-2.4e-010)
Photodiode_current: Removing PWL point (0.326316,-2.4e-010)
Photodiode_current: Removing PWL point (0.331295,-2.4e-010)
Photodiode_current: Removing PWL point (0.337423,-2.4e-010)
Photodiode_current: Removing PWL point (0.345466,-2.4e-010)
Photodiode_current: Removing PWL point (0.353509,-2.4e-010)
Photodiode_current: Removing PWL point (0.35619,-2.4e-010)
Photodiode_current: Removing PWL point (0.359637,-1.6e-010)
Photodiode_current: Removing PWL point (0.361552,-2.4e-010)
Photodiode_current: Removing PWL point (0.363084,-2.4e-010)
Photodiode_current: Removing PWL point (0.364999,-2.4e-010)
Photodiode_current: Removing PWL point (0.369595,-2.4e-010)
Photodiode_current: Removing PWL point (0.376872,-2.4e-010)
Photodiode_current: Removing PWL point (0.380702,-2.4e-010)
Photodiode_current: Removing PWL point (0.387596,-2.4e-010)
Photodiode_current: Removing PWL point (0.390277,-2.4e-010)
Photodiode_current: Removing PWL point (0.392958,-2.4e-010)
Photodiode_current: Removing PWL point (0.39449,-1.6e-010)
Photodiode_current: Removing PWL point (0.399469,-2.4e-010)
Photodiode_current: Removing PWL point (0.40981,-2.4e-010)
Photodiode_current: Removing PWL point (0.415172,-2.4e-010)
Photodiode_current: Removing PWL point (0.420917,-2.4e-010)
Photodiode_current: Removing PWL point (0.425513,-2.4e-010)
Photodiode_current: Removing PWL point (0.42896,-1.6e-010)
Photodiode_current: Removing PWL point (0.442365,1.6e-010)
Photodiode_current: Removing PWL point (0.464196,0)
Photodiode_current: Removing PWL point (0.465728,-1.6e-010)
Photodiode_current: Removing PWL point (0.467643,-1.6e-010)
Photodiode_current: Removing PWL point (0.469558,-2.4e-010)
Photodiode_current: Removing PWL point (0.479133,-2.4e-010)
Photodiode_current: Removing PWL point (0.486027,-2.4e-010)
Photodiode_current: Removing PWL point (0.489091,-2.4e-010)
Photodiode_current: Removing PWL point (0.490623,-1.6e-010)
Photodiode_current: Removing PWL point (0.491772,-2.4e-010)
Photodiode_current: Removing PWL point (0.492921,-1.6e-010)
Photodiode_current: Removing PWL point (0.495219,-2.4e-010)
Photodiode_current: Removing PWL point (0.496751,-2.4e-010)
Photodiode_current: Removing PWL point (0.504028,-2.4e-010)
Photodiode_current: Removing PWL point (0.509007,-1.6e-010)
Photodiode_current: Removing PWL point (0.510922,-1.6e-010)
Photodiode_current: Removing PWL point (0.512837,-1.6e-010)
Photodiode_current: Removing PWL point (0.514752,-1.6e-010)
Photodiode_current: Removing PWL point (0.527391,-2.4e-010)
Photodiode_current: Removing PWL point (0.528923,-2.4e-010)
Photodiode_current: Removing PWL point (0.530455,-2.4e-010)
Photodiode_current: Removing PWL point (0.533519,-2.4e-010)
Photodiode_current: Removing PWL point (0.535817,-2.4e-010)
Photodiode_current: Removing PWL point (0.542328,-2.4e-010)
Photodiode_current: Removing PWL point (0.546158,-2.4e-010)
Photodiode_current: Removing PWL point (0.548073,-2.4e-010)
Photodiode_current: Removing PWL point (0.549988,-2.4e-010)
Photodiode_current: Removing PWL point (0.551903,-2.4e-010)
Photodiode_current: Removing PWL point (0.557265,-2.4e-010)
Photodiode_current: Removing PWL point (0.560329,-2.4e-010)
Photodiode_current: Removing PWL point (0.561861,-2.4e-010)
Photodiode_current: Removing PWL point (0.563776,-1.6e-010)
Photodiode_current: Removing PWL point (0.566457,-1.6e-010)
Photodiode_current: Removing PWL point (0.568372,-1.6e-010)
Photodiode_current: Removing PWL point (0.571053,-1.6e-010)
Photodiode_current: Removing PWL point (0.572202,-8e-011)
Photodiode_current: Removing PWL point (0.573734,0)
Photodiode_current: Removing PWL point (0.583692,0)
Photodiode_current: Removing PWL point (0.585607,-1.6e-010)
Photodiode_current: Removing PWL point (0.594416,-1.6e-010)
Photodiode_current: Removing PWL point (0.597097,-1.6e-010)
Photodiode_current: Removing PWL point (0.600927,-1.6e-010)
Photodiode_current: Removing PWL point (0.602842,-2.4e-010)
Photodiode_current: Removing PWL point (0.60514,-1.6e-010)
Photodiode_current: Removing PWL point (0.606289,-2.4e-010)
Photodiode_current: Removing PWL point (0.608204,-2.4e-010)
Photodiode_current: Removing PWL point (0.613949,-1.6e-010)
Photodiode_current: Removing PWL point (0.618928,-1.6e-010)
Photodiode_current: Removing PWL point (0.620077,-2.4e-010)
Photodiode_current: Removing PWL point (0.622758,-2.4e-010)
Photodiode_current: Removing PWL point (0.624673,-1.6e-010)
Photodiode_current: Removing PWL point (0.628503,-1.6e-010)
Photodiode_current: Removing PWL point (0.630035,-1.6e-010)
Photodiode_current: Removing PWL point (0.63195,-8e-011)
Photodiode_current: Removing PWL point (0.634631,0)
Photodiode_current: Removing PWL point (0.636929,8e-011)
Photodiode_current: Removing PWL point (0.638461,1.6e-010)
Photodiode_current: Removing PWL point (0.648036,3.36e-009)
Photodiode_current: Removing PWL point (0.656079,0)
Photodiode_current: Removing PWL point (0.65876,-8e-011)
Photodiode_current: Removing PWL point (0.661824,-1.6e-010)
Photodiode_current: Removing PWL point (0.664122,-2.4e-010)
Photodiode_current: Removing PWL point (0.665271,-1.6e-010)
Photodiode_current: Removing PWL point (0.66642,-2.4e-010)
Photodiode_current: Removing PWL point (0.668718,-2.4e-010)
Photodiode_current: Removing PWL point (0.671016,-2.4e-010)
Photodiode_current: Removing PWL point (0.673697,-1.6e-010)
Photodiode_current: Removing PWL point (0.677527,-1.6e-010)
Photodiode_current: Removing PWL point (0.682123,-1.6e-010)
Photodiode_current: Removing PWL point (0.683655,-1.6e-010)
Photodiode_current: Removing PWL point (0.688634,-1.6e-010)
Photodiode_current: Removing PWL point (0.691315,-1.6e-010)
Photodiode_current: Removing PWL point (0.700124,-1.6e-010)
Photodiode_current: Removing PWL point (0.703571,0)
Photodiode_current: Removing PWL point (0.707018,1.6e-010)
Photodiode_current: Removing PWL point (0.721189,-1.6e-010)
Photodiode_current: Removing PWL point (0.734977,-2.4e-010)
Photodiode_current: Removing PWL point (0.736509,-1.6e-010)
Photodiode_current: Removing PWL point (0.745701,-2.4e-010)
Photodiode_current: Removing PWL point (0.747616,-1.6e-010)
Photodiode_current: Removing PWL point (0.748765,-2.4e-010)
Photodiode_current: Removing PWL point (0.751063,-1.6e-010)
Photodiode_current: Removing PWL point (0.752212,-2.4e-010)
Photodiode_current: Removing PWL point (0.753361,-1.6e-010)
Photodiode_current: Removing PWL point (0.757191,-1.6e-010)
Photodiode_current: Removing PWL point (0.759106,-1.6e-010)
Photodiode_current: Removing PWL point (0.760255,-8e-011)
Photodiode_current: Removing PWL point (0.764851,0)
Photodiode_current: Removing PWL point (0.767532,1.6e-010)
Photodiode_current: Removing PWL point (0.780171,8e-011)
Photodiode_current: Removing PWL point (0.781703,0)
Photodiode_current: Removing PWL point (0.786299,-8e-011)
Photodiode_current: Removing PWL point (0.788214,-1.6e-010)
Photodiode_current: Removing PWL point (0.798172,-2.4e-010)
Photodiode_current: Removing PWL point (0.800087,-1.6e-010)
Photodiode_current: Removing PWL point (0.801236,-2.4e-010)
Photodiode_current: Removing PWL point (0.802385,-1.6e-010)
Photodiode_current: Removing PWL point (0.805832,-8e-011)
Photodiode_current: Removing PWL point (0.807364,-1.6e-010)
Photodiode_current: Removing PWL point (0.809279,-1.6e-010)
Photodiode_current: Removing PWL point (0.810811,-1.6e-010)
Photodiode_current: Removing PWL point (0.812343,-1.6e-010)
Photodiode_current: Removing PWL point (0.817322,-1.6e-010)
Photodiode_current: Removing PWL point (0.820386,-8e-011)
Photodiode_current: Removing PWL point (0.824982,0)
Photodiode_current: Removing PWL point (0.828812,1.6e-010)
Photodiode_current: Removing PWL point (0.845664,1.28e-009)
Photodiode_current: Removing PWL point (0.862516,-2.4e-010)
Photodiode_current: Removing PWL point (0.871708,-2.4e-010)
Photodiode_current: Removing PWL point (0.875921,-2.4e-010)
Photodiode_current: Removing PWL point (0.877836,-1.6e-010)
Photodiode_current: Removing PWL point (0.892007,-1.6e-010)
Photodiode_current: Removing PWL point (0.893922,-2.4e-010)
Photodiode_current: Removing PWL point (0.895837,-2.4e-010)
Photodiode_current: Removing PWL point (0.897369,-2.4e-010)
Photodiode_current: Removing PWL point (0.899284,-2.4e-010)
Photodiode_current: Removing PWL point (0.914221,-2.4e-010)
Photodiode_current: Removing PWL point (0.925711,-2.4e-010)
Photodiode_current: Removing PWL point (0.945244,-3.2e-010)
Photodiode_current: Removing PWL point (0.956734,-1.6e-010)
Photodiode_current: Removing PWL point (0.957883,-2.4e-010)
Photodiode_current: Removing PWL point (0.959798,-8e-011)
Photodiode_current: Removing PWL point (0.969373,-2.4e-010)
Photodiode_current: Removing PWL point (0.973203,-1.6e-010)
Photodiode_current: Removing PWL point (0.978565,-3.2e-010)
Photodiode_current: Removing PWL point (0.980863,-2.4e-010)
Photodiode_current: Removing PWL point (0.994651,-2.4e-010)
Photodiode_current: Removing PWL point (1.00729,-2.4e-010)
Photodiode_current: Removing PWL point (1.02299,-2.4e-010)
Photodiode_current: Removing PWL point (1.02989,-1.6e-010)
Photodiode_current: Removing PWL point (1.03601,-3.2e-010)
Photodiode_current: Removing PWL point (1.03793,-2.4e-010)
Photodiode_current: Removing PWL point (1.03984,-1.6e-010)
Photodiode_current: Removing PWL point (1.04559,0)
Photodiode_current: Removing PWL point (1.0475,-1.6e-010)
Photodiode_current: Removing PWL point (1.04904,-2.4e-010)
Photodiode_current: Removing PWL point (1.0544,-2.4e-010)
Photodiode_current: Removing PWL point (1.06551,-3.2e-010)
Photodiode_current: Removing PWL point (1.06665,-2.4e-010)
Photodiode_current: Removing PWL point (1.07317,-1.6e-010)
Photodiode_current: Removing PWL point (1.08121,-2.4e-010)
Photodiode_current: Removing PWL point (1.095,-2.4e-010)
Photodiode_current: Removing PWL point (1.10304,-2.4e-010)
Photodiode_current: Removing PWL point (1.10725,-2.4e-010)
Photodiode_current: Removing PWL point (1.11759,-2.4e-010)
Photodiode_current: Removing PWL point (1.12487,-2.4e-010)
Photodiode_current: Removing PWL point (1.12679,-2.4e-010)
Photodiode_current: Removing PWL point (1.1287,-1.6e-010)
Photodiode_current: Removing PWL point (1.13598,-3.2e-010)
Photodiode_current: Removing PWL point (1.13828,-2.4e-010)
Photodiode_current: Removing PWL point (1.14594,-2.4e-010)
Photodiode_current: Removing PWL point (1.14785,-2.4e-010)
Photodiode_current: Removing PWL point (1.16432,-1.6e-010)
Photodiode_current: Removing PWL point (1.16623,-1.6e-010)
Photodiode_current: Removing PWL point (1.17275,-2.4e-010)
Photodiode_current: Removing PWL point (1.185,-2.4e-010)
Photodiode_current: Removing PWL point (1.19802,-2.4e-010)
Photodiode_current: Removing PWL point (1.20798,-2.4e-010)
Photodiode_current: Removing PWL point (1.2099,-2.4e-010)
Photodiode_current: Removing PWL point (1.21449,-2.4e-010)
Photodiode_current: Removing PWL point (1.21909,8e-011)
Photodiode_current: Removing PWL point (1.221,1.6e-010)
Photodiode_current: Removing PWL point (1.2233,0)
Photodiode_current: Removing PWL point (1.22713,-2.4e-010)
Photodiode_current: Removing PWL point (1.22866,-2.4e-010)
Photodiode_current: Removing PWL point (1.23517,-2.4e-010)
Photodiode_current: Removing PWL point (1.23786,-2.4e-010)
Photodiode_current: Removing PWL point (1.2413,-2.4e-010)
Photodiode_current: Removing PWL point (1.2436,-2.4e-010)
Photodiode_current: Removing PWL point (1.24513,-2.4e-010)
Photodiode_current: Removing PWL point (1.26313,4e-010)
Photodiode_current: Removing PWL point (1.27003,0)
Photodiode_current: Removing PWL point (1.27156,-1.6e-010)
Photodiode_current: Removing PWL point (1.27424,-2.4e-010)
Photodiode_current: Removing PWL point (1.27692,-2.4e-010)
Photodiode_current: Removing PWL point (1.27845,-2.4e-010)
Photodiode_current: Removing PWL point (1.28841,-2.4e-010)
Photodiode_current: Removing PWL point (1.29186,-2.4e-010)
Photodiode_current: Removing PWL point (1.31177,-2.4e-010)
Photodiode_current: Removing PWL point (1.31292,-1.6e-010)
Photodiode_current: Removing PWL point (1.31446,-8e-011)
Photodiode_current: Removing PWL point (1.31867,7.2e-010)
Photodiode_current: Removing PWL point (1.32058,4.8e-010)
Photodiode_current: Removing PWL point (1.32326,6.4e-010)
Photodiode_current: Removing PWL point (1.32863,-2.4e-010)
Photodiode_current: Removing PWL point (1.33054,-2.4e-010)
Photodiode_current: Removing PWL point (1.3382,-2.4e-010)
Photodiode_current: Removing PWL point (1.34127,-2.4e-010)
Photodiode_current: Removing PWL point (1.35429,-2.4e-010)
Photodiode_current: Removing PWL point (1.36425,-2.4e-010)
Photodiode_current: Removing PWL point (1.36961,-2.4e-010)
Photodiode_current: Removing PWL point (1.37114,-2.4e-010)
Photodiode_current: Removing PWL point (1.37267,-2.4e-010)
Photodiode_current: Removing PWL point (1.37459,-2.4e-010)
Photodiode_current: Removing PWL point (1.37765,-2.4e-010)
Photodiode_current: Removing PWL point (1.3945,-2.4e-010)
Photodiode_current: Removing PWL point (1.40791,-2.4e-010)
Photodiode_current: Removing PWL point (1.4194,-2.4e-010)
Photodiode_current: Removing PWL point (1.43012,-2.4e-010)
Photodiode_current: Removing PWL point (1.43893,-2.4e-010)
Photodiode_current: Removing PWL point (1.45463,-1.6e-010)
Photodiode_current: Removing PWL point (1.46038,-2.4e-010)
Photodiode_current: Removing PWL point (1.46842,0)
Photodiode_current: Removing PWL point (1.46995,-2.4e-010)
Photodiode_current: Removing PWL point (1.47493,-2.4e-010)
Photodiode_current: Removing PWL point (1.47838,-2.4e-010)
Photodiode_current: Removing PWL point (1.48144,-2.4e-010)
Photodiode_current: Removing PWL point (1.48412,-1.6e-010)
Photodiode_current: Removing PWL point (1.48566,-2.4e-010)
Photodiode_current: Removing PWL point (1.49064,-1.6e-010)
Photodiode_current: Removing PWL point (1.49944,-1.6e-010)
Photodiode_current: Removing PWL point (1.50289,0)
Photodiode_current: Removing PWL point (1.50787,-1.6e-010)
Photodiode_current: Removing PWL point (1.5117,1.2e-009)
Photodiode_current: Removing PWL point (1.52587,-1.6e-010)
Photodiode_current: Removing PWL point (1.52932,-2.4e-010)
Photodiode_current: Removing PWL point (1.53277,-2.4e-010)
Photodiode_current: Removing PWL point (1.5343,-2.4e-010)
Photodiode_current: Removing PWL point (1.54004,-2.4e-010)
Photodiode_current: Removing PWL point (1.54311,-2.4e-010)
Photodiode_current: Removing PWL point (1.5454,-2.4e-010)
Photodiode_current: Removing PWL point (1.54694,-2.4e-010)
Photodiode_current: Removing PWL point (1.54847,-1.6e-010)
Photodiode_current: Removing PWL point (1.55192,-1.6e-010)
Photodiode_current: Removing PWL point (1.55575,-2.4e-010)
Photodiode_current: Removing PWL point (1.56417,-2.4e-010)
Photodiode_current: Removing PWL point (1.56915,-1.6e-010)
Photodiode_current: Removing PWL point (1.5726,-1.6e-010)
Photodiode_current: Removing PWL point (1.57413,-8e-011)
Photodiode_current: Removing PWL point (1.58524,-2.4e-010)
Photodiode_current: Removing PWL point (1.58639,-1.6e-010)
Photodiode_current: Removing PWL point (1.58753,-2.4e-010)
Photodiode_current: Removing PWL point (1.59098,-2.4e-010)
Photodiode_current: Removing PWL point (1.5929,-2.4e-010)
Photodiode_current: Removing PWL point (1.59673,-2.4e-010)
Photodiode_current: Removing PWL point (1.60247,-2.4e-010)
Photodiode_current: Removing PWL point (1.60592,-1.6e-010)
Photodiode_current: Removing PWL point (1.60707,-2.4e-010)
Photodiode_current: Removing PWL point (1.60937,-2.4e-010)
Photodiode_current: Removing PWL point (1.61205,-2.4e-010)
Photodiode_current: Removing PWL point (1.61664,-2.4e-010)
Photodiode_current: Removing PWL point (1.62392,-1.6e-010)
Photodiode_current: Removing PWL point (1.62583,-1.6e-010)
Photodiode_current: Removing PWL point (1.6289,-8e-011)
Photodiode_current: Removing PWL point (1.63081,-8e-011)
Photodiode_current: Removing PWL point (1.63349,0)
Photodiode_current: Removing PWL point (1.64384,0)
Photodiode_current: Removing PWL point (1.64575,-1.6e-010)
Photodiode_current: Removing PWL point (1.64843,-1.6e-010)
Photodiode_current: Removing PWL point (1.6515,-8e-011)
Photodiode_current: Removing PWL point (1.65341,-1.6e-010)
Photodiode_current: Removing PWL point (1.65533,-1.6e-010)
Photodiode_current: Removing PWL point (1.65839,-1.6e-010)
Photodiode_current: Removing PWL point (1.66069,-2.4e-010)
Photodiode_current: Removing PWL point (1.66452,-2.4e-010)
Photodiode_current: Removing PWL point (1.66605,-2.4e-010)
Photodiode_current: Removing PWL point (1.66988,-2.4e-010)
Photodiode_current: Removing PWL point (1.67333,-1.6e-010)
Photodiode_current: Removing PWL point (1.67448,-2.4e-010)
Photodiode_current: Removing PWL point (1.67907,-2.4e-010)
Photodiode_current: Removing PWL point (1.6829,-1.6e-010)
Photodiode_current: Removing PWL point (1.6875,-1.6e-010)
Photodiode_current: Removing PWL point (1.68941,-1.6e-010)
Photodiode_current: Removing PWL point (1.69784,1.6e-010)
Photodiode_current: Removing PWL point (1.70665,3.44e-009)
Photodiode_current: Removing PWL point (1.71009,3.44e-009)
Photodiode_current: Removing PWL point (1.71622,0)
Photodiode_current: Removing PWL point (1.71814,-8e-011)
Photodiode_current: Removing PWL point (1.7212,-1.6e-010)
Photodiode_current: Removing PWL point (1.72503,-2.4e-010)
Photodiode_current: Removing PWL point (1.73001,-2.4e-010)
Photodiode_current: Removing PWL point (1.73346,-1.6e-010)
Photodiode_current: Removing PWL point (1.73499,-2.4e-010)
Photodiode_current: Removing PWL point (1.74035,-2.4e-010)
Photodiode_current: Removing PWL point (1.74265,-1.6e-010)
Photodiode_current: Removing PWL point (1.74686,-1.6e-010)
Photodiode_current: Removing PWL point (1.74993,-1.6e-010)
Photodiode_current: Removing PWL point (1.75108,-2.4e-010)
Photodiode_current: Removing PWL point (1.75222,-1.6e-010)
Photodiode_current: Removing PWL point (1.75682,-1.6e-010)
Photodiode_current: Removing PWL point (1.76142,-8e-011)
Photodiode_current: Removing PWL point (1.7641,0)
Photodiode_current: Removing PWL point (1.7664,1.6e-010)
Photodiode_current: Removing PWL point (1.78172,-1.6e-010)
Photodiode_current: Removing PWL point (1.78401,-2.4e-010)
Photodiode_current: Removing PWL point (1.78516,-1.6e-010)
Photodiode_current: Removing PWL point (1.78823,-2.4e-010)
Photodiode_current: Removing PWL point (1.79052,-2.4e-010)
Photodiode_current: Removing PWL point (1.79244,-2.4e-010)
Photodiode_current: Removing PWL point (1.7978,-1.6e-010)
Photodiode_current: Removing PWL point (1.8001,-1.6e-010)
Photodiode_current: Removing PWL point (1.80355,-2.4e-010)
Photodiode_current: Removing PWL point (1.80508,-1.6e-010)
Photodiode_current: Removing PWL point (1.80853,-1.6e-010)
Photodiode_current: Removing PWL point (1.81006,-1.6e-010)
Photodiode_current: Removing PWL point (1.81236,-1.6e-010)
Photodiode_current: Removing PWL point (1.81542,-1.6e-010)
Photodiode_current: Removing PWL point (1.82002,-8e-011)
Photodiode_current: Removing PWL point (1.82385,0)
Photodiode_current: Removing PWL point (1.82691,1.6e-010)
Photodiode_current: Removing PWL point (1.83993,8e-011)
Photodiode_current: Removing PWL point (1.84185,0)
Photodiode_current: Removing PWL point (1.84453,-8e-011)
Photodiode_current: Removing PWL point (1.84644,-8e-011)
Photodiode_current: Removing PWL point (1.84951,-1.6e-010)
Photodiode_current: Removing PWL point (1.85257,-1.6e-010)
Photodiode_current: Removing PWL point (1.85525,-1.6e-010)
Photodiode_current: Removing PWL point (1.85678,-2.4e-010)
Photodiode_current: Removing PWL point (1.86138,-1.6e-010)
Photodiode_current: Removing PWL point (1.86483,-8e-011)
Photodiode_current: Removing PWL point (1.86751,-1.6e-010)
Photodiode_current: Removing PWL point (1.87517,-1.6e-010)
Photodiode_current: Removing PWL point (1.8813,-8e-011)
Photodiode_current: Removing PWL point (1.88589,0)
Photodiode_current: Removing PWL point (1.88857,1.6e-010)
Photodiode_current: Removing PWL point (1.89087,2.4e-010)
Photodiode_current: Removing PWL point (1.89279,4e-010)
Photodiode_current: Removing PWL point (1.92381,-2.4e-010)
Photodiode_current: Removing PWL point (1.93109,-2.4e-010)
Photodiode_current: Removing PWL point (1.94372,-3.2e-010)
Photodiode_current: Removing PWL point (1.95177,-1.6e-010)
Photodiode_current: Removing PWL point (1.95292,-2.4e-010)
Photodiode_current: Removing PWL point (1.95521,-2.4e-010)
Photodiode_current: Removing PWL point (1.95675,-2.4e-010)
Photodiode_current: Removing PWL point (1.97513,-2.4e-010)
Photodiode_current: Removing PWL point (1.98356,-2.4e-010)
Photodiode_current: Removing PWL point (1.98585,-2.4e-010)
Photodiode_current: Removing PWL point (1.9893,-2.4e-010)
Photodiode_current: Removing PWL point (1.99313,-2.4e-010)
Photodiode_current: Removing PWL point (1.99888,-3.2e-010)
Photodiode_current: Removing PWL point (2.01611,-2.4e-010)
Photodiode_current: Removing PWL point (2.02722,-3.2e-010)
Photodiode_current: Removing PWL point (2.02837,-2.4e-010)
Photodiode_current: Removing PWL point (2.03871,-3.2e-010)
Photodiode_current: Removing PWL point (2.04177,-2.4e-010)
Photodiode_current: Removing PWL point (2.05096,-2.4e-010)
Photodiode_current: Removing PWL point (2.05633,-2.4e-010)
Photodiode_current: Removing PWL point (2.06322,-2.4e-010)
Photodiode_current: Removing PWL point (2.07854,-2.4e-010)
Photodiode_current: Removing PWL point (2.07969,-1.6e-010)
Photodiode_current: Removing PWL point (2.08199,-2.4e-010)
Photodiode_current: Removing PWL point (2.09578,-3.2e-010)
Photodiode_current: Removing PWL point (2.09884,-2.4e-010)
Photodiode_current: Removing PWL point (2.10037,-1.6e-010)
Photodiode_current: Removing PWL point (2.10305,7.2e-010)
Photodiode_current: Removing PWL point (2.10727,-1.6e-010)
Photodiode_current: Removing PWL point (2.10995,-2.4e-010)
Photodiode_current: Removing PWL point (2.11646,-2.4e-010)
Photodiode_current: Removing PWL point (2.12603,-2.4e-010)
Photodiode_current: Removing PWL point (2.12795,-2.4e-010)
Photodiode_current: Removing PWL point (2.13982,-3.2e-010)
Photodiode_current: Removing PWL point (2.14174,-2.4e-010)
Photodiode_current: Removing PWL point (2.14557,-2.4e-010)
Photodiode_current: Removing PWL point (2.15897,-2.4e-010)
Photodiode_current: Removing PWL point (2.1674,-2.4e-010)
Photodiode_current: Removing PWL point (2.17659,-2.4e-010)
Photodiode_current: Removing PWL point (2.18655,-2.4e-010)
Photodiode_current: Removing PWL point (2.18961,-1.6e-010)
Photodiode_current: Removing PWL point (2.19612,-3.2e-010)
Photodiode_current: Removing PWL point (2.19995,-2.4e-010)
Photodiode_current: Removing PWL point (2.20416,-2.4e-010)
Photodiode_current: Removing PWL point (2.20991,-2.4e-010)
Photodiode_current: Removing PWL point (2.22676,-1.6e-010)
Photodiode_current: Removing PWL point (2.22944,-1.6e-010)
Photodiode_current: Removing PWL point (2.23251,-1.6e-010)
Photodiode_current: Removing PWL point (2.23442,-2.4e-010)
Photodiode_current: Removing PWL point (2.24246,-2.4e-010)
Photodiode_current: Removing PWL point (2.24744,-2.4e-010)
Photodiode_current: Removing PWL point (2.25012,-2.4e-010)
Photodiode_current: Removing PWL point (2.25702,-2.4e-010)
Photodiode_current: Removing PWL point (2.26353,-2.4e-010)
Photodiode_current: Removing PWL point (2.2731,-2.4e-010)
Photodiode_current: Removing PWL point (2.27655,-1.6e-010)
Photodiode_current: Removing PWL point (2.27808,0)
Photodiode_current: Removing PWL point (2.27962,8e-011)
Photodiode_current: Removing PWL point (2.28153,8e-011)
Photodiode_current: Removing PWL point (2.28345,0)
Photodiode_current: Removing PWL point (2.28651,-1.6e-010)
Photodiode_current: Removing PWL point (2.28881,-2.4e-010)
Photodiode_current: Removing PWL point (2.29762,-2.4e-010)
Photodiode_current: Removing PWL point (2.29953,-2.4e-010)
Photodiode_current: Removing PWL point (2.30643,-2.4e-010)
Photodiode_current: Removing PWL point (2.31332,-2.4e-010)
Photodiode_current: Removing PWL point (2.31715,-1.6e-010)
Photodiode_current: Removing PWL point (2.32481,3.2e-010)
Photodiode_current: Removing PWL point (2.32979,0)
Photodiode_current: Removing PWL point (2.33362,-1.6e-010)
Photodiode_current: Removing PWL point (2.33477,-2.4e-010)
Photodiode_current: Removing PWL point (2.33975,-2.4e-010)
Photodiode_current: Removing PWL point (2.34128,-2.4e-010)
Photodiode_current: Removing PWL point (2.34319,-2.4e-010)
Photodiode_current: Removing PWL point (2.35239,-2.4e-010)
Photodiode_current: Removing PWL point (2.35545,-2.4e-010)
Photodiode_current: Removing PWL point (2.35736,-2.4e-010)
Photodiode_current: Removing PWL point (2.36541,-2.4e-010)
Photodiode_current: Removing PWL point (2.37192,-2.4e-010)
Photodiode_current: Removing PWL point (2.37422,-1.6e-010)
Photodiode_current: Removing PWL point (2.37881,7.2e-010)
Photodiode_current: Removing PWL point (2.38034,5.6e-010)
Photodiode_current: Removing PWL point (2.38341,7.2e-010)
Photodiode_current: Removing PWL point (2.38915,-2.4e-010)
Photodiode_current: Removing PWL point (2.42554,-2.4e-010)
Photodiode_current: Removing PWL point (2.43167,-2.4e-010)
Photodiode_current: Removing PWL point (2.43511,-2.4e-010)
Photodiode_current: Removing PWL point (2.43626,-1.6e-010)
Photodiode_current: Removing PWL point (2.43818,-2.4e-010)
Photodiode_current: Removing PWL point (2.45235,-2.4e-010)
Photodiode_current: Removing PWL point (2.45694,-2.4e-010)
Photodiode_current: Removing PWL point (2.47035,-2.4e-010)
Photodiode_current: Removing PWL point (2.47226,-2.4e-010)
Photodiode_current: Removing PWL point (2.47418,-2.4e-010)
Photodiode_current: Removing PWL point (2.47801,-2.4e-010)
Photodiode_current: Removing PWL point (2.48069,-2.4e-010)
Photodiode_current: Removing PWL point (2.48414,-2.4e-010)
Photodiode_current: Removing PWL point (2.49141,-2.4e-010)
Photodiode_current: Removing PWL point (2.5098,-2.4e-010)
Photodiode_current: Removing PWL point (2.51133,-2.4e-010)
Photodiode_current: Removing PWL point (2.51439,-1.6e-010)
Photodiode_current: Removing PWL point (2.52014,-2.4e-010)
Photodiode_current: Removing PWL point (2.52971,-2.4e-010)
Photodiode_current: Removing PWL point (2.53699,-2.4e-010)
Photodiode_current: Removing PWL point (2.5458,-2.4e-010)
Photodiode_current: Removing PWL point (2.5481,-2.4e-010)
Photodiode_current: Removing PWL point (2.54925,-1.6e-010)
Photodiode_current: Removing PWL point (2.55921,-1.6e-010)
Photodiode_current: Removing PWL point (2.56342,0)
Photodiode_current: Removing PWL point (2.56763,-1.6e-010)
Photodiode_current: Removing PWL point (2.5864,-2.4e-010)
Photodiode_current: Removing PWL point (2.58755,-1.6e-010)
Photodiode_current: Removing PWL point (2.58946,-2.4e-010)
Photodiode_current: Removing PWL point (2.59214,-2.4e-010)
Photodiode_current: Removing PWL point (2.59789,-1.6e-010)
Photodiode_current: Removing PWL point (2.60019,-2.4e-010)
Photodiode_current: Removing PWL point (2.60172,-2.4e-010)
Photodiode_current: Removing PWL point (2.60938,-2.4e-010)
Photodiode_current: Removing PWL point (2.61321,-2.4e-010)
Photodiode_current: Removing PWL point (2.62815,-1.6e-010)
Photodiode_current: Removing PWL point (2.62968,-1.6e-010)
Photodiode_current: Removing PWL point (2.63504,-1.6e-010)
Photodiode_current: Removing PWL point (2.64538,-2.4e-010)
Photodiode_current: Removing PWL point (2.64959,-2.4e-010)
Photodiode_current: Removing PWL point (2.65304,-2.4e-010)
Photodiode_current: Removing PWL point (2.65993,-2.4e-010)
Photodiode_current: Removing PWL point (2.66568,-2.4e-010)
Photodiode_current: Removing PWL point (2.67142,-2.4e-010)
Photodiode_current: Removing PWL point (2.681,-2.4e-010)
Photodiode_current: Removing PWL point (2.68483,-2.4e-010)
Photodiode_current: Removing PWL point (2.68789,-1.6e-010)
Photodiode_current: Removing PWL point (2.69019,-1.6e-010)
Photodiode_current: Removing PWL point (2.69287,-8e-011)
Photodiode_current: Removing PWL point (2.70436,-8e-011)
Photodiode_current: Removing PWL point (2.70551,-1.6e-010)
Photodiode_current: Removing PWL point (2.70858,-1.6e-010)
Photodiode_current: Removing PWL point (2.71279,-1.6e-010)
Photodiode_current: Removing PWL point (2.72007,-2.4e-010)
Photodiode_current: Removing PWL point (2.7216,-2.4e-010)
Photodiode_current: Removing PWL point (2.72351,-2.4e-010)
Photodiode_current: Removing PWL point (2.73424,-2.4e-010)
Photodiode_current: Removing PWL point (2.73922,-2.4e-010)
Photodiode_current: Removing PWL point (2.74113,-2.4e-010)
Photodiode_current: Removing PWL point (2.74458,-1.6e-010)
Photodiode_current: Removing PWL point (2.74956,-1.6e-010)
Photodiode_current: Removing PWL point (2.75377,-8e-011)
Photodiode_current: Removing PWL point (2.7553,0)
Photodiode_current: Removing PWL point (2.75798,1.6e-010)
Photodiode_current: Removing PWL point (2.76679,3.44e-009)
Photodiode_current: Removing PWL point (2.77598,0)
Photodiode_current: Removing PWL point (2.77943,-1.6e-010)
Photodiode_current: Removing PWL point (2.78211,-1.6e-010)
Photodiode_current: Removing PWL point (2.78326,-2.4e-010)
Photodiode_current: Removing PWL point (2.78441,-1.6e-010)
Photodiode_current: Removing PWL point (2.78594,-2.4e-010)
Photodiode_current: Removing PWL point (2.79169,-2.4e-010)
Photodiode_current: Removing PWL point (2.7936,-1.6e-010)
Photodiode_current: Removing PWL point (2.79667,-1.6e-010)
Photodiode_current: Removing PWL point (2.80088,-1.6e-010)
Photodiode_current: Removing PWL point (2.80279,-2.4e-010)
Photodiode_current: Removing PWL point (2.80509,-1.6e-010)
Photodiode_current: Removing PWL point (2.80892,-1.6e-010)
Photodiode_current: Removing PWL point (2.81199,-1.6e-010)
Photodiode_current: Removing PWL point (2.81696,-1.6e-010)
Photodiode_current: Removing PWL point (2.82156,-8e-011)
Photodiode_current: Removing PWL point (2.82309,0)
Photodiode_current: Removing PWL point (2.82654,1.6e-010)
Photodiode_current: Removing PWL point (2.8388,-8e-011)
Photodiode_current: Removing PWL point (2.84148,-1.6e-010)
Photodiode_current: Removing PWL point (2.84607,-1.6e-010)
Photodiode_current: Removing PWL point (2.84837,-2.4e-010)
Photodiode_current: Removing PWL point (2.8499,-1.6e-010)
Photodiode_current: Removing PWL point (2.85641,-1.6e-010)
Photodiode_current: Removing PWL point (2.85986,-1.6e-010)
Photodiode_current: Removing PWL point (2.86637,-2.4e-010)
Photodiode_current: Removing PWL point (2.86752,-1.6e-010)
Photodiode_current: Removing PWL point (2.87212,-1.6e-010)
Photodiode_current: Removing PWL point (2.87441,-1.6e-010)
Photodiode_current: Removing PWL point (2.87824,-1.6e-010)
Photodiode_current: Removing PWL point (2.88016,-8e-011)
Photodiode_current: Removing PWL point (2.88207,0)
Photodiode_current: Removing PWL point (2.88437,0)
Photodiode_current: Removing PWL point (2.88667,1.6e-010)
Photodiode_current: Removing PWL point (2.89854,1.6e-010)
Photodiode_current: Removing PWL point (2.90122,0)
Photodiode_current: Removing PWL point (2.90352,0)
Photodiode_current: Removing PWL point (2.90467,-8e-011)
Photodiode_current: Removing PWL point (2.90812,-1.6e-010)
Photodiode_current: Removing PWL point (2.91042,-1.6e-010)
Photodiode_current: Removing PWL point (2.91769,-1.6e-010)
Photodiode_current: Removing PWL point (2.92037,-1.6e-010)
Photodiode_current: Removing PWL point (2.92306,-1.6e-010)
Photodiode_current: Removing PWL point (2.9242,-8e-011)
Photodiode_current: Removing PWL point (2.92727,-1.6e-010)
Photodiode_current: Removing PWL point (2.93033,-1.6e-010)
Photodiode_current: Removing PWL point (2.93455,-1.6e-010)
Photodiode_current: Removing PWL point (2.93723,-1.6e-010)
Photodiode_current: Removing PWL point (2.94106,-8e-011)
Photodiode_current: Removing PWL point (2.94335,0)
Photodiode_current: Removing PWL point (2.94833,1.6e-010)
Photodiode_current: Removing PWL point (2.98357,-2.4e-010)
Photodiode_current: Removing PWL point (2.992,-2.4e-010)
Photodiode_current: Removing PWL point (3.01268,-2.4e-010)
Photodiode_current: Removing PWL point (3.01421,-2.4e-010)
Photodiode_current: Removing PWL point (3.03221,-3.2e-010)
Photodiode_current: Removing PWL point (3.03604,-2.4e-010)
Photodiode_current: Removing PWL point (3.04332,-2.4e-010)
Photodiode_current: Removing PWL point (3.04562,-2.4e-010)
Photodiode_current: Removing PWL point (3.04791,-2.4e-010)
Photodiode_current: Removing PWL point (3.04983,-2.4e-010)
Photodiode_current: Removing PWL point (3.05864,-3.2e-010)
Photodiode_current: Removing PWL point (3.07626,-2.4e-010)
Photodiode_current: Removing PWL point (3.07932,-1.6e-010)
Photodiode_current: Removing PWL point (3.09004,-2.4e-010)
Photodiode_current: Removing PWL point (3.09962,-2.4e-010)
Photodiode_current: Removing PWL point (3.10192,-2.4e-010)
Photodiode_current: Removing PWL point (3.1046,-2.4e-010)
Photodiode_current: Removing PWL point (3.11264,-2.4e-010)
Photodiode_current: Removing PWL point (3.118,-2.4e-010)
Photodiode_current: Removing PWL point (3.11953,-2.4e-010)
Photodiode_current: Removing PWL point (3.12298,-2.4e-010)
Photodiode_current: Removing PWL point (3.12566,-2.4e-010)
Photodiode_current: Removing PWL point (3.13485,7.2e-010)
Direct Newton iteration failed to find .op point.  (Use ".option noopiter" to skip.)
Starting Gmin stepping
Gmin = 10
Gmin = 1.07374
vernier = 0.5
vernier = 0.25
vernier = 0.125
vernier = 0.0625
Gmin = 1.08884
vernier = 0.03125
vernier = 0.015625
Gmin = 1.03922
vernier = 0.0078125
vernier = 0.0104167
vernier = 0.00520833
Gmin = 1.02512
vernier = 0.00260417
Gmin = 1.01715
vernier = 0.00347222
vernier = 0.00173611
vernier = 0.00231481
Gmin = 1.01311
vernier = 0.00115741
vernier = 0.00154321
Gmin = 1.01048
vernier = 0.000771604
vernier = 0.00102881
Gmin = 1.00885
vernier = 0.000514403
vernier = 0.00068587
Gmin = 1.00769
vernier = 0.000514403
vernier = 0.00068587
Gmin = 1.00652
vernier = 0.000514402
Gmin = 0
Gmin stepping failed

Starting source stepping with srcstepmethod=0
Source Step = 3.0303%
Source Step = 33.3333%
Source Step = 63.6364%
Source Step = 93.9394%
Source stepping succeeded in finding the operating point.


Date: Fri Mar 18 13:36:55 2016
Total elapsed time: 3.110 seconds.

tnom = 27
temp = 27
method = modified trap
totiter = 73787
traniter = 66696
tranpoints = 32618
accept = 29914
rejected = 2704
matrix size = 29
fillins = 31
solver = Normal
Thread vector: 11.2/8.7[3] 5.2/3.3[3] 1.3/9.5[1] 0.6/18.5[1]  2592/500
Matrix Compiler1: 2.36 KB object code size  1.4/0.8/[0.5]
Matrix Compiler2: 2.88 KB object code size  1.0/1.0/[0.7]


