Circuit: * Z:\Users\aviatorblue\Documents\Senior Project\Electrical_Design\Amplifier_Design\amplifier_setup_rev2.asc

Error on line 32 : v4 n013 0 v
	 Unknown parameter "v"
V4: Missing value, assumed 0V @ DC
Direct Newton iteration failed to find .op point.  (Use ".option noopiter" to skip.)
Starting Gmin stepping
Gmin = 10
Gmin = 1.07374
vernier = 0.5
vernier = 0.25
vernier = 0.125
vernier = 0.0625
Gmin = 1.08884
vernier = 0.03125
vernier = 0.015625
Gmin = 1.03922
vernier = 0.0078125
vernier = 0.0104167
vernier = 0.00520833
Gmin = 1.02512
vernier = 0.00260417
Gmin = 1.01715
vernier = 0.00347222
vernier = 0.00173611
vernier = 0.00231481
Gmin = 1.01311
vernier = 0.00115741
vernier = 0.00154321
Gmin = 1.01048
vernier = 0.000771604
vernier = 0.00102881
Gmin = 1.00885
vernier = 0.000514403
vernier = 0.00068587
Gmin = 1.00769
vernier = 0.000514403
vernier = 0.00068587
Gmin = 1.00652
vernier = 0.000514402
Gmin = 0
Gmin stepping failed

Starting source stepping with srcstepmethod=0
Source Step = 3.0303%
Source Step = 12.1212%
Source Step = 19.697%
Source Step = 24.8106%
Source Step = 26.7045%
Source Step = 28.5985%
Source Step = 30.4924%
Source Step = 32.3864%
vernier = 0.09375
Source Step = 34.4697%
Source Step = 37.3106%
Source Step = 40.1515%
Source Step = 42.9924%
Source Step = 45.8333%
vernier = 0.140625
Source Step = 48.8163%
Source Step = 53.0777%
Source Step = 57.339%
Source Step = 61.6004%
Source Step = 65.8617%
Source Step = 70.1231%
vernier = 0.210938
Source Step = 76.5152%
Source Step = 82.9072%
Source Step = 85.3841%
Source Step = 85.474%
Source Step = 85.5739%
Source Step = 85.6738%
Source Step = 85.7736%
Source Step = 85.8735%
vernier = 0.00494385
Source Step = 86.0033%
Source Step = 86.1532%
Source Step = 86.1869%
Source Step = 86.2243%
Source Step = 86.2618%
Source Step = 86.2992%
Source Step = 86.3367%
vernier = 0.00185394
Source Step = 86.3816%
Source Step = 86.4378%
Source Step = 86.494%
Source Step = 86.5502%
Source Step = 86.6063%
vernier = 0.00278091
Source Step = 86.671%
Source Step = 86.7552%
Source Step = 86.8395%
Source Step = 86.9238%
Source Step = 87.008%
vernier = 0.00417137
Source Step = 87.1007%
Source Step = 87.2271%
Source Step = 87.3535%
Source Step = 87.4799%
Source Step = 87.6063%
vernier = 0.00625706
Source Step = 87.7391%
Source Step = 87.9287%
Source Step = 88.1183%
Source Step = 88.3079%
Source Step = 88.4975%
Source Step = 88.6871%
vernier = 0.00938559
Source Step = 88.9715%
Source Step = 89.2559%
Source Step = 89.5403%
Source Step = 89.8248%
Source Step = 90.1092%
vernier = 0.0140784
Source Step = 90.5216%
Source Step = 90.9482%
Source Step = 91.3748%
Source Step = 91.8014%
Source Step = 92.228%
vernier = 0.0211176
Source Step = 92.8253%
Source Step = 93.4652%
Source Step = 94.1052%
Source Step = 94.7451%
Source Step = 95.385%
vernier = 0.0316764
Source Step = 96.2489%
Source Step = 97.2088%
Source Step = 98.1687%
Source Step = 99.1286%
Source Step = 100%
Source stepping succeeded in finding the operating point.


Date: Sat Jan 30 14:32:17 2016
Total elapsed time: 2.898 seconds.

tnom = 27
temp = 27
method = modified trap
totiter = 20407
traniter = 9686
tranpoints = 4767
accept = 3924
rejected = 843
matrix size = 62
fillins = 79
solver = Normal
Thread vector: 53.1/34.3[4] 17.9/10.7[4] 8.7/7.1[4] 0.6/2.4[1]  2592/500
Matrix Compiler1: 9.09 KB object code size  3.6/2.0/[1.3]
Matrix Compiler2: 7.98 KB object code size  2.5/2.6/[1.1]


