Circuit: * Z:\Users\aviatorblue\Documents\sFPI\Electrical_Design\Amplifier_Design\amplifier_setup_rev2.asc

Early termination of direct N-R iteration.
Direct Newton iteration failed to find .op point.  (Use ".option noopiter" to skip.)
Starting Gmin stepping
Gmin = 10
Gmin = 1.07374
vernier = 0.5
vernier = 0.25
vernier = 0.125
vernier = 0.0625
Gmin = 1.08884
vernier = 0.03125
vernier = 0.015625
Gmin = 1.03922
vernier = 0.0078125
vernier = 0.0104167
vernier = 0.00520833
Gmin = 1.02512
vernier = 0.00260417
Gmin = 1.01715
vernier = 0.00347222
vernier = 0.00173611
vernier = 0.00231481
Gmin = 1.01311
vernier = 0.00115741
vernier = 0.00154321
Gmin = 1.01048
vernier = 0.000771604
vernier = 0.00102881
Gmin = 1.00885
vernier = 0.000514403
vernier = 0.00068587
Gmin = 1.00769
vernier = 0.000514403
vernier = 0.00068587
Gmin = 1.00652
vernier = 0.000514402
Gmin = 0
Gmin stepping failed

Starting source stepping with srcstepmethod=0
Source Step = 3.0303%
Source Step = 21.2121%
vernier = 0.0625
Source Step = 20.8481%
Source Step = 20.8777%
Source Step = 20.9073%
Source Step = 20.9369%
Source Step = 20.9665%
vernier = 0.00146484
Source Step = 20.9991%
Source Step = 21.0434%
Source Step = 21.0878%
Source Step = 21.1322%
Source Step = 21.1766%
vernier = 0.00219727
Source Step = 21.2232%
Source Step = 21.2898%
Source Step = 21.3564%
Source Step = 21.423%
Source Step = 21.4896%
Source Step = 21.5561%
vernier = 0.0032959
Source Step = 21.656%
Source Step = 21.7559%
Source Step = 21.8558%
Source Step = 21.9556%
Source Step = 22.0555%
vernier = 0.00494385
Source Step = 22.2003%
Source Step = 22.3501%
Source Step = 22.5%
Source Step = 22.6498%
Source Step = 22.7996%
vernier = 0.00741577
Source Step = 23.0093%
Source Step = 23.234%
Source Step = 23.4588%
Source Step = 23.6835%
Source Step = 23.9082%
vernier = 0.0111237
Source Step = 24.2116%
Source Step = 24.5487%
Source Step = 24.8857%
Source Step = 25.2228%
Source Step = 25.5599%
vernier = 0.0166855
Source Step = 25.9981%
Source Step = 26.5037%
Source Step = 27.0094%
Source Step = 27.515%
Source Step = 28.0206%
vernier = 0.0250282
Source Step = 28.6526%
Source Step = 29.4111%
Source Step = 30.1695%
Source Step = 30.9279%
Source Step = 31.6863%
vernier = 0.0375423
Source Step = 32.5965%
Source Step = 33.7341%
Source Step = 34.8718%
Source Step = 36.0094%
Source Step = 37.147%
vernier = 0.0563135
Source Step = 38.4553%
Source Step = 40.1618%
Source Step = 41.8683%
Source Step = 43.5748%
Source Step = 45.2812%
vernier = 0.0844703
Source Step = 47.1583%
Source Step = 49.718%
Source Step = 52.2777%
Source Step = 54.8375%
Source Step = 57.3972%
vernier = 0.126705
Source Step = 60.0849%
Source Step = 63.9244%
Source Step = 67.764%
Source Step = 71.6035%
Source Step = 75.4431%
Source Step = 79.2826%
vernier = 0.190058
Source Step = 85.042%
Source Step = 90.8013%
vernier = 0.0475145
Source Step = 90.2974%
Source Step = 90.3874%
Source Step = 90.4774%
Source Step = 90.5673%
Source Step = 90.6573%
vernier = 0.00445449
Source Step = 90.7788%
Source Step = 90.9138%
Source Step = 91.0488%
Source Step = 91.1838%
Source Step = 91.3188%
vernier = 0.00668173
Source Step = 91.4942%
Source Step = 91.6967%
Source Step = 91.8992%
Source Step = 92.1017%
Source Step = 92.3041%
vernier = 0.0100226
Source Step = 92.5572%
Source Step = 92.861%
Source Step = 93.1647%
Source Step = 93.4684%
Source Step = 93.7721%
vernier = 0.0150339
Source Step = 94.1366%
Source Step = 94.5921%
Source Step = 95.0477%
Source Step = 95.5033%
Source Step = 95.9588%
vernier = 0.0225508
Source Step = 96.4828%
Source Step = 97.1661%
Source Step = 97.8495%
Source Step = 98.5328%
Source Step = 99.2162%
vernier = 0.0338263
Source Step = 99.9679%
Source stepping succeeded in finding the operating point.


Date: Tue Jan 12 18:35:48 2016
Total elapsed time: 3.648 seconds.

tnom = 27
temp = 27
method = modified trap
totiter = 14576
traniter = 2592
tranpoints = 1214
accept = 1167
rejected = 47
matrix size = 60
fillins = 96
solver = Normal
Thread vector: 92.6/50.9[4] 20.0/22.0[1] 10.5/7.0[3] 1.1/8.9[1]  2592/500
Matrix Compiler1: 8.56 KB object code size  4.4/2.3/[1.5]
Matrix Compiler2: 8.58 KB object code size  2.1/3.2/[1.7]


