Circuit: * Z:\Users\aviatorblue\Documents\sFPI\Electrical Design\Amplifier_Design\amplifier_setup.asc

WARNING: Node N002 is floating.

WARNING: Less than two connections to node NC_01.  This node is used by R3.
Direct Newton iteration for .op point succeeded.

Date: Wed Oct 07 21:09:38 2015
Total elapsed time: 0.057 seconds.

tnom = 27
temp = 27
method = modified trap
totiter = 1306
traniter = 1296
tranpoints = 600
accept = 532
rejected = 68
matrix size = 27
fillins = 6
solver = Normal
Matrix Compiler1: 2.28 KB object code size  1.2/0.4/[0.3]
Matrix Compiler2: 2.43 KB object code size  0.3/0.4/[0.3]


