Circuit: * Z:\Users\aviatorblue\Documents\Senior Project\Electrical_Design\Amplifier_Design\Rev_2.0\amplifier_setup_rev2.asc

Direct Newton iteration failed to find .op point.  (Use ".option noopiter" to skip.)
Starting Gmin stepping
Gmin = 10
Gmin = 1.07374
vernier = 0.5
vernier = 0.25
vernier = 0.125
vernier = 0.0625
Gmin = 1.08884
vernier = 0.03125
vernier = 0.015625
Gmin = 1.03922
vernier = 0.0078125
vernier = 0.0104167
vernier = 0.00520833
Gmin = 1.02512
vernier = 0.00260417
Gmin = 1.01715
vernier = 0.00347222
vernier = 0.00173611
vernier = 0.00231481
Gmin = 1.01311
vernier = 0.00115741
vernier = 0.00154321
Gmin = 1.01048
vernier = 0.000771604
vernier = 0.00102881
Gmin = 1.00885
vernier = 0.000514403
vernier = 0.00068587
Gmin = 1.00769
vernier = 0.000514403
vernier = 0.00068587
Gmin = 1.00652
vernier = 0.000514402
Gmin = 0
Gmin stepping failed

Starting source stepping with srcstepmethod=0
Source Step = 3.0303%
Source Step = 7.38636%
Source Step = 9.2803%
Source Step = 11.1742%
Source Step = 13.0682%
Source Step = 14.9621%
vernier = 0.09375
Source Step = 17.4242%
Source Step = 20.2652%
Source Step = 23.1061%
Source Step = 25.947%
Source Step = 28.7879%
vernier = 0.140625
Source Step = 32.339%
Source Step = 36.6004%
Source Step = 40.8617%
Source Step = 45.1231%
Source Step = 49.3845%
vernier = 0.210938
Source Step = 54.4981%
Source Step = 60.8902%
Source Step = 67.2822%
Source Step = 73.6742%
Source Step = 80.0663%
vernier = 0.316406
Source Step = 87.4171%
Source Step = 92.391%
Source Step = 92.4434%
Source Step = 92.4808%
Source Step = 92.5183%
Source Step = 92.5557%
Source Step = 92.5932%
Source Step = 92.6307%
Source Step = 92.6681%
Source Step = 92.7056%
Source Step = 92.743%
Source Step = 92.7805%
Source Step = 92.8179%
Source Step = 92.8554%
Source Step = 92.8928%
Source Step = 92.9303%
Source Step = 92.9677%
Source Step = 93.0052%
Source Step = 93.0426%
Source Step = 93.0801%
Source Step = 93.1175%
Source Step = 93.155%
Source Step = 93.1925%
Source Step = 93.2299%
Source Step = 93.2674%
Source Step = 93.3048%
Source Step = 93.3423%
Source Step = 93.3797%
Source Step = 93.4172%
Source Step = 93.4546%
Source Step = 93.4921%
Source Step = 93.5295%
Source Step = 93.567%
Source Step = 93.6044%
Source Step = 93.6419%
Source Step = 93.6793%
Source Step = 93.7168%
Source Step = 93.7543%
Source Step = 93.7917%
Source Step = 93.8292%
Source Step = 93.8666%
Source Step = 93.9041%
Source Step = 93.9415%
Source Step = 93.979%
Source Step = 94.0164%
Source Step = 94.0539%
Source Step = 94.0913%
Source Step = 94.1288%
Source Step = 94.1662%
Source Step = 94.2037%
Source Step = 94.2411%
Source Step = 94.2786%
Source Step = 94.3161%
Source Step = 94.3535%
Source Step = 94.391%
Source Step = 94.4284%
Source Step = 94.4659%
Source Step = 94.5033%
Source Step = 94.5408%
Source Step = 94.5782%
Source Step = 94.6157%
Source Step = 94.6531%
Source Step = 94.6906%
Source Step = 94.728%
Source Step = 94.7655%
Source Step = 94.8029%
Source Step = 94.8404%
Source Step = 94.8779%
Source Step = 94.9153%
Source Step = 94.9528%
Source Step = 94.9902%
Source Step = 95.0277%
Source Step = 95.0651%
Source Step = 95.1026%
Source Step = 95.14%
Source Step = 95.1775%
Source Step = 95.2149%
Source Step = 95.2524%
Source Step = 95.2898%
Source Step = 95.3273%
Source Step = 95.3647%
Source Step = 95.4022%
Source Step = 95.4397%
Source Step = 95.4771%
Source Step = 95.5146%
Source Step = 95.552%
Source Step = 95.5895%
Source Step = 95.6269%
Source Step = 95.6644%
Source Step = 95.7018%
Source Step = 95.7393%
Source Step = 95.7767%
Source Step = 95.8142%
Source Step = 95.8516%
Source Step = 95.8891%
Source Step = 95.9266%
Source Step = 95.964%
Source Step = 96.0015%
Source Step = 96.0389%
Source Step = 96.0764%
Source Step = 96.1138%
Source Step = 96.1513%
Source Step = 96.1887%
Source Step = 96.2262%
Source Step = 96.2636%
Source Step = 96.3011%
Source Step = 96.3385%
Source Step = 96.376%
Source Step = 96.4134%
Source Step = 96.4509%
Source Step = 96.4884%
Source Step = 96.5258%
Source Step = 96.5633%
Source Step = 96.6007%
Source Step = 96.6382%
Source Step = 96.6756%
Source Step = 96.7131%
Source Step = 96.7505%
Source Step = 96.788%
Source Step = 96.8254%
Source Step = 96.8629%
Source Step = 96.9003%
Source Step = 96.9378%
Source Step = 96.9752%
Source Step = 97.0127%
Source Step = 97.0502%
Source Step = 97.0876%
Source Step = 97.1251%
Source Step = 97.1625%
Source Step = 97.2%
Source Step = 97.2374%
Source Step = 97.2749%
Source Step = 97.3123%
Source Step = 97.3498%
Source Step = 97.3872%
Source Step = 97.4247%
Source Step = 97.4621%
Source Step = 97.4996%
Source Step = 97.537%
Source Step = 97.5745%
Source Step = 97.612%
Source Step = 97.6494%
Source Step = 97.6869%
Source Step = 97.7243%
Source Step = 97.7618%
Source Step = 97.7992%
Source Step = 97.8367%
Source Step = 97.8741%
Source Step = 97.9116%
Source Step = 97.949%
Source Step = 97.9865%
Source Step = 98.0239%
Source Step = 98.0614%
Source Step = 98.0988%
Source Step = 98.1363%
Source Step = 98.1738%
Source Step = 98.2112%
Source Step = 98.2487%
Source Step = 98.2861%
Source Step = 98.3236%
Source Step = 98.361%
Source Step = 98.3985%
Source Step = 98.4359%
Source Step = 98.4734%
Source Step = 98.5108%
Source Step = 98.5483%
Source Step = 98.5857%
Source Step = 98.6232%
Source Step = 98.6606%
Source Step = 98.6981%
Source Step = 98.7356%
Source Step = 98.773%
vernier = 0.00185394
Source Step = 98.8217%
Source Step = 98.8779%
Source Step = 98.9341%
Source Step = 98.9902%
Source Step = 99.0464%
vernier = 0.00278091
Source Step = 99.1166%
Source Step = 99.2009%
Source Step = 99.2852%
Source Step = 99.3695%
Source Step = 99.4537%
vernier = 0.00417137
Source Step = 99.5548%
Source Step = 99.6813%
Source Step = 99.8077%
Source Step = 99.9341%
Source stepping succeeded in finding the operating point.


Date: Fri Mar 18 13:33:49 2016
Total elapsed time: 32.403 seconds.

tnom = 27
temp = 27
method = modified trap
totiter = 219074
traniter = 104885
tranpoints = 52235
accept = 44955
rejected = 7280
matrix size = 62
fillins = 58
solver = Normal
Thread vector: 51.1/31.6[4] 23.0/21.2[1] 9.6/12.6[1] 0.6/3.2[1]  2592/500
Matrix Compiler1: 6.67 KB object code size  3.7/2.1/[1.2]
Matrix Compiler2: 7.63 KB object code size  2.0/2.4/[1.4]


