Circuit: * Z:\Users\aviatorblue\Documents\Senior Project\Electrical_Design\transimpedance_amplifier.asc

WARNING: Node N006 is floating.

WARNING: Less than two connections to node VSS.  This node is used by V2.
Direct Newton iteration for .op point succeeded.

Date: Fri Jan 29 20:13:32 2016
Total elapsed time: 0.273 seconds.

tnom = 27
temp = 27
method = modified trap
totiter = 16034
traniter = 16018
tranpoints = 8010
accept = 4881
rejected = 3129
matrix size = 26
fillins = 23
solver = Normal
Thread vector: 14.6/8.0[2] 4.8/3.4[2] 1.6/1.3[2] 0.3/0.7[1]  2592/500
Matrix Compiler1: 1.51 KB object code size  0.7/0.4/[0.3]
Matrix Compiler2: 2.19 KB object code size  0.4/0.5/[0.3]


