Circuit: * Z:\Users\aviatorblue\Documents\Senior Project\Electrical_Design\transimpedance_amplifier.asc

I1: Removing PWL point (-0.04095,0.032)
I1: Removing PWL point (-0.04079,0.024)
I1: Removing PWL point (-0.04045,0.032)
I1: Removing PWL point (-0.04036,0.024)
I1: Removing PWL point (-0.04028,0.024)
I1: Removing PWL point (-0.04017,0.024)
I1: Removing PWL point (-0.04002,0.024)
I1: Removing PWL point (-0.03985,0.024)
I1: Removing PWL point (-0.03943,0.016)
I1: Removing PWL point (-0.03925,0.024)
I1: Removing PWL point (-0.03915,0.024)
I1: Removing PWL point (-0.03912,0.016)
I1: Removing PWL point (-0.0389,0.024)
I1: Removing PWL point (-0.03868,0.024)
I1: Removing PWL point (-0.03846,0.024)
I1: Removing PWL point (-0.03832,0.024)
I1: Removing PWL point (-0.03823,0.016)
I1: Removing PWL point (-0.03814,0.016)
I1: Removing PWL point (-0.03808,0.024)
I1: Removing PWL point (-0.03803,0.024)
I1: Removing PWL point (-0.03781,0.024)
I1: Removing PWL point (-0.03743,0.024)
I1: Removing PWL point (-0.03732,0.024)
I1: Removing PWL point (-0.0371,0.024)
I1: Removing PWL point (-0.03706,0.024)
I1: Removing PWL point (-0.03689,0.016)
I1: Removing PWL point (-0.03681,-0.008)
I1: Removing PWL point (-0.03678,-0.016)
I1: Removing PWL point (-0.0367,-0.008)
I1: Removing PWL point (-0.03657,0.024)
I1: Removing PWL point (-0.03648,0.024)
I1: Removing PWL point (-0.03641,0.024)
I1: Removing PWL point (-0.03615,0.024)
I1: Removing PWL point (-0.03599,0.024)
I1: Removing PWL point (-0.0358,0.016)
I1: Removing PWL point (-0.03569,-0.072)
I1: Removing PWL point (-0.03563,-0.04)
I1: Removing PWL point (-0.03548,0)
I1: Removing PWL point (-0.0354,0.016)
I1: Removing PWL point (-0.03537,0.024)
I1: Removing PWL point (-0.03529,0.024)
I1: Removing PWL point (-0.03524,0.024)
I1: Removing PWL point (-0.03455,0.024)
I1: Removing PWL point (-0.03444,0.024)
I1: Removing PWL point (-0.03438,0.016)
I1: Removing PWL point (-0.03434,0.016)
I1: Removing PWL point (-0.0342,-0.072)
I1: Removing PWL point (-0.03416,-0.056)
I1: Removing PWL point (-0.03411,-0.064)
I1: Removing PWL point (-0.034,0)
I1: Removing PWL point (-0.03393,0.016)
I1: Removing PWL point (-0.0339,0.024)
I1: Removing PWL point (-0.03349,0.024)
I1: Removing PWL point (-0.03335,0.024)
I1: Removing PWL point (-0.0333,0.024)
I1: Removing PWL point (-0.03302,0.024)
I1: Removing PWL point (-0.03295,0.024)
I1: Removing PWL point (-0.0329,0.024)
I1: Removing PWL point (-0.03286,0.024)
I1: Removing PWL point (-0.03277,0.024)
I1: Removing PWL point (-0.03272,0.016)
I1: Removing PWL point (-0.03263,0.024)
I1: Removing PWL point (-0.03257,0.024)
I1: Removing PWL point (-0.03244,0.024)
I1: Removing PWL point (-0.03231,0.024)
I1: Removing PWL point (-0.03215,0.024)
I1: Removing PWL point (-0.03194,0.024)
I1: Removing PWL point (-0.03173,0.024)
I1: Removing PWL point (-0.03166,0.024)
I1: Removing PWL point (-0.03157,0.016)
I1: Removing PWL point (-0.03152,0.024)
I1: Removing PWL point (-0.03148,0.024)
I1: Removing PWL point (-0.03143,0.024)
I1: Removing PWL point (-0.03131,0.024)
I1: Removing PWL point (-0.03112,0.024)
I1: Removing PWL point (-0.03102,0.024)
I1: Removing PWL point (-0.03084,0.024)
I1: Removing PWL point (-0.03077,0.024)
I1: Removing PWL point (-0.0307,0.024)
I1: Removing PWL point (-0.03066,0.016)
I1: Removing PWL point (-0.03053,0.024)
I1: Removing PWL point (-0.03026,0.024)
I1: Removing PWL point (-0.03012,0.024)
I1: Removing PWL point (-0.02997,0.024)
I1: Removing PWL point (-0.02985,0.024)
I1: Removing PWL point (-0.02976,0.016)
I1: Removing PWL point (-0.02941,-0.016)
I1: Removing PWL point (-0.02884,0)
I1: Removing PWL point (-0.0288,0.016)
I1: Removing PWL point (-0.02875,0.016)
I1: Removing PWL point (-0.0287,0.024)
I1: Removing PWL point (-0.02845,0.024)
I1: Removing PWL point (-0.02827,0.024)
I1: Removing PWL point (-0.02819,0.024)
I1: Removing PWL point (-0.02815,0.016)
I1: Removing PWL point (-0.02812,0.024)
I1: Removing PWL point (-0.02809,0.016)
I1: Removing PWL point (-0.02803,0.024)
I1: Removing PWL point (-0.02799,0.024)
I1: Removing PWL point (-0.0278,0.024)
I1: Removing PWL point (-0.02767,0.016)
I1: Removing PWL point (-0.02762,0.016)
I1: Removing PWL point (-0.02757,0.016)
I1: Removing PWL point (-0.02752,0.016)
I1: Removing PWL point (-0.02719,0.024)
I1: Removing PWL point (-0.02715,0.024)
I1: Removing PWL point (-0.02711,0.024)
I1: Removing PWL point (-0.02703,0.024)
I1: Removing PWL point (-0.02697,0.024)
I1: Removing PWL point (-0.0268,0.024)
I1: Removing PWL point (-0.0267,0.024)
I1: Removing PWL point (-0.02665,0.024)
I1: Removing PWL point (-0.0266,0.024)
I1: Removing PWL point (-0.02655,0.024)
I1: Removing PWL point (-0.02641,0.024)
I1: Removing PWL point (-0.02633,0.024)
I1: Removing PWL point (-0.02629,0.024)
I1: Removing PWL point (-0.02624,0.016)
I1: Removing PWL point (-0.02617,0.016)
I1: Removing PWL point (-0.02612,0.016)
I1: Removing PWL point (-0.02605,0.016)
I1: Removing PWL point (-0.02602,0.008)
I1: Removing PWL point (-0.02598,0)
I1: Removing PWL point (-0.02572,0)
I1: Removing PWL point (-0.02567,0.016)
I1: Removing PWL point (-0.02544,0.016)
I1: Removing PWL point (-0.02537,0.016)
I1: Removing PWL point (-0.02527,0.016)
I1: Removing PWL point (-0.02522,0.024)
I1: Removing PWL point (-0.02516,0.016)
I1: Removing PWL point (-0.02513,0.024)
I1: Removing PWL point (-0.02508,0.024)
I1: Removing PWL point (-0.02493,0.016)
I1: Removing PWL point (-0.0248,0.016)
I1: Removing PWL point (-0.02477,0.024)
I1: Removing PWL point (-0.0247,0.024)
I1: Removing PWL point (-0.02465,0.016)
I1: Removing PWL point (-0.02455,0.016)
I1: Removing PWL point (-0.02451,0.016)
I1: Removing PWL point (-0.02446,0.008)
I1: Removing PWL point (-0.02439,0)
I1: Removing PWL point (-0.02433,-0.008)
I1: Removing PWL point (-0.02429,-0.016)
I1: Removing PWL point (-0.02404,-0.336)
I1: Removing PWL point (-0.02383,0)
I1: Removing PWL point (-0.02376,0.008)
I1: Removing PWL point (-0.02368,0.016)
I1: Removing PWL point (-0.02362,0.024)
I1: Removing PWL point (-0.02359,0.016)
I1: Removing PWL point (-0.02356,0.024)
I1: Removing PWL point (-0.0235,0.024)
I1: Removing PWL point (-0.02344,0.024)
I1: Removing PWL point (-0.02337,0.016)
I1: Removing PWL point (-0.02327,0.016)
I1: Removing PWL point (-0.02315,0.016)
I1: Removing PWL point (-0.02311,0.016)
I1: Removing PWL point (-0.02298,0.016)
I1: Removing PWL point (-0.02291,0.016)
I1: Removing PWL point (-0.02268,0.016)
I1: Removing PWL point (-0.02259,0)
I1: Removing PWL point (-0.0225,-0.016)
I1: Removing PWL point (-0.02213,0.016)
I1: Removing PWL point (-0.02177,0.024)
I1: Removing PWL point (-0.02173,0.016)
I1: Removing PWL point (-0.02149,0.024)
I1: Removing PWL point (-0.02144,0.016)
I1: Removing PWL point (-0.02141,0.024)
I1: Removing PWL point (-0.02135,0.016)
I1: Removing PWL point (-0.02132,0.024)
I1: Removing PWL point (-0.02129,0.016)
I1: Removing PWL point (-0.02119,0.016)
I1: Removing PWL point (-0.02114,0.016)
I1: Removing PWL point (-0.02111,0.008)
I1: Removing PWL point (-0.02099,0)
I1: Removing PWL point (-0.02092,-0.016)
I1: Removing PWL point (-0.02059,-0.008)
I1: Removing PWL point (-0.02055,0)
I1: Removing PWL point (-0.02043,0.008)
I1: Removing PWL point (-0.02038,0.016)
I1: Removing PWL point (-0.02012,0.024)
I1: Removing PWL point (-0.02007,0.016)
I1: Removing PWL point (-0.02004,0.024)
I1: Removing PWL point (-0.02001,0.016)
I1: Removing PWL point (-0.01992,0.008)
I1: Removing PWL point (-0.01988,0.016)
I1: Removing PWL point (-0.01983,0.016)
I1: Removing PWL point (-0.01979,0.016)
I1: Removing PWL point (-0.01975,0.016)
I1: Removing PWL point (-0.01962,0.016)
I1: Removing PWL point (-0.01954,0.008)
I1: Removing PWL point (-0.01942,0)
I1: Removing PWL point (-0.01932,-0.016)
I1: Removing PWL point (-0.01888,-0.128)
I1: Removing PWL point (-0.01844,0.024)
I1: Removing PWL point (-0.0182,0.024)
I1: Removing PWL point (-0.01809,0.024)
I1: Removing PWL point (-0.01804,0.016)
I1: Removing PWL point (-0.01767,0.016)
I1: Removing PWL point (-0.01762,0.024)
I1: Removing PWL point (-0.01757,0.024)
I1: Removing PWL point (-0.01753,0.024)
I1: Removing PWL point (-0.01748,0.024)
I1: Removing PWL point (-0.01709,0.024)
I1: Removing PWL point (-0.01679,0.024)
I1: Removing PWL point (-0.01628,0.032)
I1: Removing PWL point (-0.01598,0.016)
I1: Removing PWL point (-0.01595,0.024)
I1: Removing PWL point (-0.0159,0.008)
I1: Removing PWL point (-0.01565,0.024)
I1: Removing PWL point (-0.01555,0.016)
I1: Removing PWL point (-0.01541,0.032)
I1: Removing PWL point (-0.01535,0.024)
I1: Removing PWL point (-0.01499,0.024)
I1: Removing PWL point (-0.01466,0.024)
I1: Removing PWL point (-0.01425,0.024)
I1: Removing PWL point (-0.01407,0.016)
I1: Removing PWL point (-0.01391,0.032)
I1: Removing PWL point (-0.01386,0.024)
I1: Removing PWL point (-0.01381,0.016)
I1: Removing PWL point (-0.01366,0)
I1: Removing PWL point (-0.01361,0.016)
I1: Removing PWL point (-0.01357,0.024)
I1: Removing PWL point (-0.01343,0.024)
I1: Removing PWL point (-0.01314,0.032)
I1: Removing PWL point (-0.01311,0.024)
I1: Removing PWL point (-0.01294,0.016)
I1: Removing PWL point (-0.01273,0.024)
I1: Removing PWL point (-0.01237,0.024)
I1: Removing PWL point (-0.01216,0.024)
I1: Removing PWL point (-0.01205,0.024)
I1: Removing PWL point (-0.01178,0.024)
I1: Removing PWL point (-0.01159,0.024)
I1: Removing PWL point (-0.01154,0.024)
I1: Removing PWL point (-0.01149,0.016)
I1: Removing PWL point (-0.0113,0.032)
I1: Removing PWL point (-0.01124,0.024)
I1: Removing PWL point (-0.01104,0.024)
I1: Removing PWL point (-0.01099,0.024)
I1: Removing PWL point (-0.01056,0.016)
I1: Removing PWL point (-0.01051,0.016)
I1: Removing PWL point (-0.01034,0.024)
I1: Removing PWL point (-0.01002,0.024)
I1: Removing PWL point (-0.00968,0.024)
I1: Removing PWL point (-0.00942,0.024)
I1: Removing PWL point (-0.00937,0.024)
I1: Removing PWL point (-0.00925,0.024)
I1: Removing PWL point (-0.00913,-0.008)
I1: Removing PWL point (-0.00908,-0.016)
I1: Removing PWL point (-0.00902,0)
I1: Removing PWL point (-0.00892,0.024)
I1: Removing PWL point (-0.00888,0.024)
I1: Removing PWL point (-0.00871,0.024)
I1: Removing PWL point (-0.00864,0.024)
I1: Removing PWL point (-0.00855,0.024)
I1: Removing PWL point (-0.00849,0.024)
I1: Removing PWL point (-0.00845,0.024)
I1: Removing PWL point (-0.00798,-0.04)
I1: Removing PWL point (-0.0078,0)
I1: Removing PWL point (-0.00776,0.016)
I1: Removing PWL point (-0.00769,0.024)
I1: Removing PWL point (-0.00762,0.024)
I1: Removing PWL point (-0.00758,0.024)
I1: Removing PWL point (-0.00732,0.024)
I1: Removing PWL point (-0.00723,0.024)
I1: Removing PWL point (-0.00671,0.024)
I1: Removing PWL point (-0.00668,0.016)
I1: Removing PWL point (-0.00664,0.008)
I1: Removing PWL point (-0.00653,-0.072)
I1: Removing PWL point (-0.00648,-0.048)
I1: Removing PWL point (-0.00641,-0.064)
I1: Removing PWL point (-0.00627,0.024)
I1: Removing PWL point (-0.00622,0.024)
I1: Removing PWL point (-0.00602,0.024)
I1: Removing PWL point (-0.00594,0.024)
I1: Removing PWL point (-0.0056,0.024)
I1: Removing PWL point (-0.00534,0.024)
I1: Removing PWL point (-0.0052,0.024)
I1: Removing PWL point (-0.00516,0.024)
I1: Removing PWL point (-0.00512,0.024)
I1: Removing PWL point (-0.00507,0.024)
I1: Removing PWL point (-0.00499,0.024)
I1: Removing PWL point (-0.00455,0.024)
I1: Removing PWL point (-0.0042,0.024)
I1: Removing PWL point (-0.0039,0.024)
I1: Removing PWL point (-0.00362,0.024)
I1: Removing PWL point (-0.00339,0.024)
I1: Removing PWL point (-0.00298,0.016)
I1: Removing PWL point (-0.00283,0.024)
I1: Removing PWL point (-0.00262,0)
I1: Removing PWL point (-0.00258,0.024)
I1: Removing PWL point (-0.00245,0.024)
I1: Removing PWL point (-0.00236,0.024)
I1: Removing PWL point (-0.00228,0.024)
I1: Removing PWL point (-0.00221,0.016)
I1: Removing PWL point (-0.00217,0.024)
I1: Removing PWL point (-0.00204,0.016)
I1: Removing PWL point (-0.00181,0.016)
I1: Removing PWL point (-0.00172,0)
I1: Removing PWL point (-0.00159,0.016)
I1: Removing PWL point (-0.00149,-0.12)
I1: Removing PWL point (-0.00112,0.016)
I1: Removing PWL point (-0.00103,0.024)
I1: Removing PWL point (-0.00094,0.024)
I1: Removing PWL point (-0.0009,0.024)
I1: Removing PWL point (-0.00075,0.024)
I1: Removing PWL point (-0.00067,0.024)
I1: Removing PWL point (-0.00061,0.024)
I1: Removing PWL point (-0.00057,0.024)
I1: Removing PWL point (-0.00053,0.016)
I1: Removing PWL point (-0.00044,0.016)
I1: Removing PWL point (-0.00034,0.024)
I1: Removing PWL point (-0.00012,0.024)
I1: Removing PWL point (1e-005,0.016)
I1: Removing PWL point (0.0001,0.016)
I1: Removing PWL point (0.00014,0.008)
I1: Removing PWL point (0.00043,0.024)
I1: Removing PWL point (0.00046,0.016)
I1: Removing PWL point (0.00049,0.024)
I1: Removing PWL point (0.00058,0.024)
I1: Removing PWL point (0.00063,0.024)
I1: Removing PWL point (0.00073,0.024)
I1: Removing PWL point (0.00088,0.024)
I1: Removing PWL point (0.00097,0.016)
I1: Removing PWL point (0.001,0.024)
I1: Removing PWL point (0.00106,0.024)
I1: Removing PWL point (0.00113,0.024)
I1: Removing PWL point (0.00125,0.024)
I1: Removing PWL point (0.00144,0.016)
I1: Removing PWL point (0.00149,0.016)
I1: Removing PWL point (0.00157,0.008)
I1: Removing PWL point (0.00162,0.008)
I1: Removing PWL point (0.00169,0)
I1: Removing PWL point (0.00196,0)
I1: Removing PWL point (0.00201,0.016)
I1: Removing PWL point (0.00208,0.016)
I1: Removing PWL point (0.00216,0.008)
I1: Removing PWL point (0.00221,0.016)
I1: Removing PWL point (0.00226,0.016)
I1: Removing PWL point (0.00234,0.016)
I1: Removing PWL point (0.0024,0.024)
I1: Removing PWL point (0.0025,0.024)
I1: Removing PWL point (0.00254,0.024)
I1: Removing PWL point (0.00264,0.024)
I1: Removing PWL point (0.00273,0.016)
I1: Removing PWL point (0.00276,0.024)
I1: Removing PWL point (0.00288,0.024)
I1: Removing PWL point (0.00298,0.016)
I1: Removing PWL point (0.0031,0.016)
I1: Removing PWL point (0.00315,0.016)
I1: Removing PWL point (0.00337,-0.016)
I1: Removing PWL point (0.0036,-0.344)
I1: Removing PWL point (0.00369,-0.344)
I1: Removing PWL point (0.00385,0)
I1: Removing PWL point (0.0039,0.008)
I1: Removing PWL point (0.00398,0.016)
I1: Removing PWL point (0.00408,0.024)
I1: Removing PWL point (0.00421,0.024)
I1: Removing PWL point (0.0043,0.016)
I1: Removing PWL point (0.00434,0.024)
I1: Removing PWL point (0.00448,0.024)
I1: Removing PWL point (0.00454,0.016)
I1: Removing PWL point (0.00465,0.016)
I1: Removing PWL point (0.00473,0.016)
I1: Removing PWL point (0.00476,0.024)
I1: Removing PWL point (0.00479,0.016)
I1: Removing PWL point (0.00491,0.016)
I1: Removing PWL point (0.00503,0.008)
I1: Removing PWL point (0.0051,0)
I1: Removing PWL point (0.00516,-0.016)
I1: Removing PWL point (0.00556,0.016)
I1: Removing PWL point (0.00562,0.024)
I1: Removing PWL point (0.00565,0.016)
I1: Removing PWL point (0.00573,0.024)
I1: Removing PWL point (0.00579,0.024)
I1: Removing PWL point (0.00584,0.024)
I1: Removing PWL point (0.00598,0.016)
I1: Removing PWL point (0.00604,0.016)
I1: Removing PWL point (0.00613,0.024)
I1: Removing PWL point (0.00617,0.016)
I1: Removing PWL point (0.00626,0.016)
I1: Removing PWL point (0.0063,0.016)
I1: Removing PWL point (0.00636,0.016)
I1: Removing PWL point (0.00644,0.016)
I1: Removing PWL point (0.00656,0.008)
I1: Removing PWL point (0.00666,0)
I1: Removing PWL point (0.00674,-0.016)
I1: Removing PWL point (0.00708,-0.008)
I1: Removing PWL point (0.00713,0)
I1: Removing PWL point (0.0072,0.008)
I1: Removing PWL point (0.00725,0.008)
I1: Removing PWL point (0.00733,0.016)
I1: Removing PWL point (0.00741,0.016)
I1: Removing PWL point (0.00748,0.016)
I1: Removing PWL point (0.00752,0.024)
I1: Removing PWL point (0.00764,0.016)
I1: Removing PWL point (0.00773,0.008)
I1: Removing PWL point (0.0078,0.016)
I1: Removing PWL point (0.008,0.016)
I1: Removing PWL point (0.00816,0.008)
I1: Removing PWL point (0.00828,0)
I1: Removing PWL point (0.00835,-0.016)
I1: Removing PWL point (0.00841,-0.024)
I1: Removing PWL point (0.00846,-0.04)
I1: Removing PWL point (0.00927,0.024)
I1: Removing PWL point (0.00946,0.024)
I1: Removing PWL point (0.00979,0.032)
I1: Removing PWL point (0.01,0.016)
I1: Removing PWL point (0.01003,0.024)
I1: Removing PWL point (0.01009,0.024)
I1: Removing PWL point (0.01013,0.024)
I1: Removing PWL point (0.01061,0.024)
I1: Removing PWL point (0.01083,0.024)
I1: Removing PWL point (0.01089,0.024)
I1: Removing PWL point (0.01098,0.024)
I1: Removing PWL point (0.01108,0.024)
I1: Removing PWL point (0.01123,0.032)
I1: Removing PWL point (0.01168,0.024)
I1: Removing PWL point (0.01197,0.032)
I1: Removing PWL point (0.012,0.024)
I1: Removing PWL point (0.01227,0.032)
I1: Removing PWL point (0.01235,0.024)
I1: Removing PWL point (0.01259,0.024)
I1: Removing PWL point (0.01273,0.024)
I1: Removing PWL point (0.01291,0.024)
I1: Removing PWL point (0.01331,0.024)
I1: Removing PWL point (0.01334,0.016)
I1: Removing PWL point (0.0134,0.024)
I1: Removing PWL point (0.01376,0.032)
I1: Removing PWL point (0.01384,0.024)
I1: Removing PWL point (0.01388,0.016)
I1: Removing PWL point (0.01395,-0.072)
I1: Removing PWL point (0.01406,0.016)
I1: Removing PWL point (0.01413,0.024)
I1: Removing PWL point (0.0143,0.024)
I1: Removing PWL point (0.01455,0.024)
I1: Removing PWL point (0.0146,0.024)
I1: Removing PWL point (0.01491,0.032)
I1: Removing PWL point (0.01496,0.024)
I1: Removing PWL point (0.01506,0.024)
I1: Removing PWL point (0.01541,0.024)
I1: Removing PWL point (0.01563,0.024)
I1: Removing PWL point (0.01587,0.024)
I1: Removing PWL point (0.01613,0.024)
I1: Removing PWL point (0.01621,0.016)
I1: Removing PWL point (0.01638,0.032)
I1: Removing PWL point (0.01648,0.024)
I1: Removing PWL point (0.01659,0.024)
I1: Removing PWL point (0.01674,0.024)
I1: Removing PWL point (0.01718,0.016)
I1: Removing PWL point (0.01725,0.016)
I1: Removing PWL point (0.01733,0.016)
I1: Removing PWL point (0.01738,0.024)
I1: Removing PWL point (0.01759,0.024)
I1: Removing PWL point (0.01772,0.024)
I1: Removing PWL point (0.01779,0.024)
I1: Removing PWL point (0.01797,0.024)
I1: Removing PWL point (0.01814,0.024)
I1: Removing PWL point (0.01839,0.024)
I1: Removing PWL point (0.01848,0.016)
I1: Removing PWL point (0.01852,0)
I1: Removing PWL point (0.01856,-0.008)
I1: Removing PWL point (0.01861,-0.008)
I1: Removing PWL point (0.01866,0)
I1: Removing PWL point (0.01874,0.016)
I1: Removing PWL point (0.0188,0.024)
I1: Removing PWL point (0.01903,0.024)
I1: Removing PWL point (0.01908,0.024)
I1: Removing PWL point (0.01926,0.024)
I1: Removing PWL point (0.01944,0.024)
I1: Removing PWL point (0.01954,0.016)
I1: Removing PWL point (0.01974,-0.032)
I1: Removing PWL point (0.01987,0)
I1: Removing PWL point (0.01997,0.016)
I1: Removing PWL point (0.02,0.024)
I1: Removing PWL point (0.02013,0.024)
I1: Removing PWL point (0.02017,0.024)
I1: Removing PWL point (0.02022,0.024)
I1: Removing PWL point (0.02046,0.024)
I1: Removing PWL point (0.02054,0.024)
I1: Removing PWL point (0.02059,0.024)
I1: Removing PWL point (0.0208,0.024)
I1: Removing PWL point (0.02097,0.024)
I1: Removing PWL point (0.02103,0.016)
I1: Removing PWL point (0.02115,-0.072)
I1: Removing PWL point (0.02119,-0.056)
I1: Removing PWL point (0.02127,-0.072)
I1: Removing PWL point (0.02142,0.024)
I1: Removing PWL point (0.02237,0.024)
I1: Removing PWL point (0.02253,0.024)
I1: Removing PWL point (0.02262,0.024)
I1: Removing PWL point (0.02265,0.016)
I1: Removing PWL point (0.0227,0.024)
I1: Removing PWL point (0.02307,0.024)
I1: Removing PWL point (0.02319,0.024)
I1: Removing PWL point (0.02354,0.024)
I1: Removing PWL point (0.02359,0.024)
I1: Removing PWL point (0.02364,0.024)
I1: Removing PWL point (0.02374,0.024)
I1: Removing PWL point (0.02381,0.024)
I1: Removing PWL point (0.0239,0.024)
I1: Removing PWL point (0.02409,0.024)
I1: Removing PWL point (0.02457,0.024)
I1: Removing PWL point (0.02461,0.024)
I1: Removing PWL point (0.02469,0.016)
I1: Removing PWL point (0.02484,0.024)
I1: Removing PWL point (0.02509,0.024)
I1: Removing PWL point (0.02528,0.024)
I1: Removing PWL point (0.02551,0.024)
I1: Removing PWL point (0.02557,0.024)
I1: Removing PWL point (0.0256,0.016)
I1: Removing PWL point (0.02586,0.016)
I1: Removing PWL point (0.02597,0)
I1: Removing PWL point (0.02608,0.016)
I1: Removing PWL point (0.02657,0.024)
I1: Removing PWL point (0.0266,0.016)
I1: Removing PWL point (0.02665,0.024)
I1: Removing PWL point (0.02672,0.024)
I1: Removing PWL point (0.02687,0.016)
I1: Removing PWL point (0.02693,0.024)
I1: Removing PWL point (0.02697,0.024)
I1: Removing PWL point (0.02717,0.024)
I1: Removing PWL point (0.02727,0.024)
I1: Removing PWL point (0.02766,0.016)
I1: Removing PWL point (0.0277,0.016)
I1: Removing PWL point (0.02784,0.016)
I1: Removing PWL point (0.02811,0.024)
I1: Removing PWL point (0.02822,0.024)
I1: Removing PWL point (0.02831,0.024)
I1: Removing PWL point (0.02849,0.024)
I1: Removing PWL point (0.02864,0.024)
I1: Removing PWL point (0.02879,0.024)
I1: Removing PWL point (0.02904,0.024)
I1: Removing PWL point (0.02914,0.024)
I1: Removing PWL point (0.02922,0.016)
I1: Removing PWL point (0.02928,0.016)
I1: Removing PWL point (0.02935,0.008)
I1: Removing PWL point (0.02965,0.008)
I1: Removing PWL point (0.02968,0.016)
I1: Removing PWL point (0.02976,0.016)
I1: Removing PWL point (0.02987,0.016)
I1: Removing PWL point (0.03006,0.024)
I1: Removing PWL point (0.0301,0.024)
I1: Removing PWL point (0.03015,0.024)
I1: Removing PWL point (0.03043,0.024)
I1: Removing PWL point (0.03056,0.024)
I1: Removing PWL point (0.03061,0.024)
I1: Removing PWL point (0.0307,0.016)
I1: Removing PWL point (0.03083,0.016)
I1: Removing PWL point (0.03094,0.008)
I1: Removing PWL point (0.03098,0)
I1: Removing PWL point (0.03105,-0.016)
I1: Removing PWL point (0.03128,-0.344)
I1: Removing PWL point (0.03152,0)
I1: Removing PWL point (0.03161,0.016)
I1: Removing PWL point (0.03168,0.016)
I1: Removing PWL point (0.03171,0.024)
I1: Removing PWL point (0.03174,0.016)
I1: Removing PWL point (0.03178,0.024)
I1: Removing PWL point (0.03193,0.024)
I1: Removing PWL point (0.03198,0.016)
I1: Removing PWL point (0.03206,0.016)
I1: Removing PWL point (0.03217,0.016)
I1: Removing PWL point (0.03222,0.024)
I1: Removing PWL point (0.03228,0.016)
I1: Removing PWL point (0.03238,0.016)
I1: Removing PWL point (0.03246,0.016)
I1: Removing PWL point (0.03259,0.016)
I1: Removing PWL point (0.03271,0.008)
I1: Removing PWL point (0.03275,0)
I1: Removing PWL point (0.03284,-0.016)
I1: Removing PWL point (0.03316,0.008)
I1: Removing PWL point (0.03323,0.016)
I1: Removing PWL point (0.03335,0.016)
I1: Removing PWL point (0.03341,0.024)
I1: Removing PWL point (0.03345,0.016)
I1: Removing PWL point (0.03362,0.016)
I1: Removing PWL point (0.03371,0.016)
I1: Removing PWL point (0.03388,0.024)
I1: Removing PWL point (0.03391,0.016)
I1: Removing PWL point (0.03403,0.016)
I1: Removing PWL point (0.03409,0.016)
I1: Removing PWL point (0.03419,0.016)
I1: Removing PWL point (0.03424,0.008)
I1: Removing PWL point (0.03429,0)
I1: Removing PWL point (0.03435,0)
I1: Removing PWL point (0.03441,-0.016)
I1: Removing PWL point (0.03472,-0.016)
I1: Removing PWL point (0.03479,0)
I1: Removing PWL point (0.03485,0)
I1: Removing PWL point (0.03488,0.008)
I1: Removing PWL point (0.03497,0.016)
I1: Removing PWL point (0.03503,0.016)
I1: Removing PWL point (0.03522,0.016)
I1: Removing PWL point (0.03529,0.016)
I1: Removing PWL point (0.03536,0.016)
I1: Removing PWL point (0.03539,0.008)
I1: Removing PWL point (0.03547,0.016)
I1: Removing PWL point (0.03555,0.016)
I1: Removing PWL point (0.03566,0.016)
I1: Removing PWL point (0.03573,0.016)
I1: Removing PWL point (0.03583,0.008)
I1: Removing PWL point (0.03589,0)
I1: Removing PWL point (0.03602,-0.016)
I1: Removing PWL point (0.03694,0.024)
I1: Removing PWL point (0.03716,0.024)
I1: Removing PWL point (0.0377,0.024)
I1: Removing PWL point (0.03774,0.024)
I1: Removing PWL point (0.03821,0.032)
I1: Removing PWL point (0.03831,0.024)
I1: Removing PWL point (0.0385,0.024)
I1: Removing PWL point (0.03856,0.024)
I1: Removing PWL point (0.03862,0.024)
I1: Removing PWL point (0.03867,0.024)
I1: Removing PWL point (0.0389,0.032)
I1: Removing PWL point (0.03936,0.024)
I1: Removing PWL point (0.03944,0.016)
I1: Removing PWL point (0.03972,0.024)
I1: Removing PWL point (0.03997,0.024)
I1: Removing PWL point (0.04003,0.024)
I1: Removing PWL point (0.0401,0.024)
I1: Removing PWL point (0.04031,0.024)
I1: Removing PWL point (0.04045,0.024)
I1: Removing PWL point (0.04049,0.024)
I1: Removing PWL point (0.04058,0.024)
I1: Removing PWL point (0.04065,0.024)
I1: Removing PWL point (0.04089,-0.072)
WARNING: Node N007 is floating.

Direct Newton iteration failed to find .op point.  (Use ".option noopiter" to skip.)
Starting Gmin stepping
Gmin = 10
Gmin = 1.07374
vernier = 0.5
vernier = 0.25
vernier = 0.125
vernier = 0.0625
vernier = 0.03125
Gmin = 1.0412
vernier = 0.015625
vernier = 0.0078125
Gmin = 1.0132
vernier = 0.00390625
vernier = 0.00195313
Gmin = 1.00827
vernier = 0.00260417
vernier = 0.00130208
Gmin = 1.00515
vernier = 0.000651042
vernier = 0.000868055
vernier = 0.000434028
Gmin = 1.00434
vernier = 0.000578703
vernier = 0.000434027
Gmin = 1.00339
Gmin = 0
Gmin stepping failed

Starting source stepping with srcstepmethod=0
Source Step = 3.0303%
Source Step = 33.3333%
Source Step = 63.6364%
Source Step = 93.9394%
Source stepping succeeded in finding the operating point.

Heightened Def Con from 1.11135e-009 to 6.11135e-009
Heightened Def Con from 9.96833e-007 to 1.00283e-006
Heightened Def Con from 1.00388e-006 to 1.00888e-006
Heightened Def Con from 1.01344e-006 to 1.02144e-006
Heightened Def Con from 1.02539e-006 to 1.02839e-006
Heightened Def Con from 1.02956e-006 to 1.03356e-006
Heightened Def Con from 1.03468e-006 to 1.03768e-006
Heightened Def Con from 1.03822e-006 to 1.04222e-006
Heightened Def Con from 1.04272e-006 to 1.04872e-006
Heightened Def Con from 1.04936e-006 to 1.06736e-006
Heightened Def Con from 1.0698e-006 to 1.0768e-006
Heightened Def Con from 1.07749e-006 to 1.08149e-006
Heightened Def Con from 1.08684e-006 to 1.09584e-006
Heightened Def Con from 1.09686e-006 to 1.10186e-006
Heightened Def Con from 1.10187e-006 to 1.10587e-006
Heightened Def Con from 1.10767e-006 to 1.11567e-006
Heightened Def Con from 1.11778e-006 to 1.12578e-006
Heightened Def Con from 1.12664e-006 to 1.12964e-006
Heightened Def Con from 1.13018e-006 to 1.13618e-006
Heightened Def Con from 1.13679e-006 to 1.14079e-006
Heightened Def Con from 1.14394e-006 to 1.14794e-006
Heightened Def Con from 1.14797e-006 to 1.15197e-006
Heightened Def Con from 1.15559e-006 to 1.15859e-006
Heightened Def Con from 1.15861e-006 to 1.16261e-006
Heightened Def Con from 1.16348e-006 to 1.17248e-006
Heightened Def Con from 1.17562e-006 to 1.17862e-006
Heightened Def Con from 1.17918e-006 to 1.18218e-006
Heightened Def Con from 1.18227e-006 to 1.18827e-006
Heightened Def Con from 1.18905e-006 to 1.19305e-006
Heightened Def Con from 1.1975e-006 to 1.2005e-006
Heightened Def Con from 1.20058e-006 to 1.20358e-006
Heightened Def Con from 1.20503e-006 to 1.21103e-006
Heightened Def Con from 1.21391e-006 to 1.21791e-006
Heightened Def Con from 1.21927e-006 to 1.22527e-006
Heightened Def Con from 1.24435e-006 to 1.25635e-006
Heightened Def Con from 1.25954e-006 to 1.27154e-006
Heightened Def Con from 1.27164e-006 to 1.27664e-006
Heightened Def Con from 1.29001e-006 to 1.29901e-006
Heightened Def Con from 1.30387e-006 to 1.30987e-006
Heightened Def Con from 1.31025e-006 to 1.31725e-006
Heightened Def Con from 1.31771e-006 to 1.33071e-006
Heightened Def Con from 1.33074e-006 to 1.34474e-006
Heightened Def Con from 1.34538e-006 to 1.34838e-006
Heightened Def Con from 1.35147e-006 to 1.35547e-006
Heightened Def Con from 1.35637e-006 to 1.36137e-006
Heightened Def Con from 1.36202e-006 to 1.37802e-006
Heightened Def Con from 1.381e-006 to 1.384e-006
Heightened Def Con from 1.38821e-006 to 1.39521e-006
Heightened Def Con from 1.39808e-006 to 1.40208e-006
Heightened Def Con from 1.40388e-006 to 1.41588e-006
Heightened Def Con from 1.41675e-006 to 1.42175e-006
Heightened Def Con from 1.42214e-006 to 1.42714e-006
Heightened Def Con from 1.42946e-006 to 1.44446e-006
Heightened Def Con from 1.44456e-006 to 1.44856e-006
Heightened Def Con from 1.44918e-006 to 1.46118e-006
Heightened Def Con from 1.46514e-006 to 1.47214e-006
Heightened Def Con from 1.47519e-006 to 1.49019e-006
Heightened Def Con from 1.49066e-006 to 1.49366e-006
Heightened Def Con from 1.4962e-006 to 1.4992e-006
Heightened Def Con from 1.49921e-006 to 1.50521e-006
Heightened Def Con from 1.50618e-006 to 1.51018e-006
Heightened Def Con from 1.51097e-006 to 1.51397e-006
Heightened Def Con from 1.51487e-006 to 1.51887e-006
Heightened Def Con from 1.51981e-006 to 1.52881e-006
Heightened Def Con from 1.53801e-006 to 1.54201e-006
Heightened Def Con from 1.5434e-006 to 1.5564e-006
Heightened Def Con from 1.55643e-006 to 1.56143e-006
Heightened Def Con from 1.56438e-006 to 1.56838e-006
Heightened Def Con from 1.57174e-006 to 1.57474e-006
Heightened Def Con from 1.57597e-006 to 1.57897e-006
Heightened Def Con from 1.58437e-006 to 1.58937e-006
Heightened Def Con from 1.58939e-006 to 1.61639e-006
Heightened Def Con from 1.61686e-006 to 1.62086e-006
Heightened Def Con from 1.62391e-006 to 1.62891e-006
Heightened Def Con from 1.63453e-006 to 1.63853e-006
Heightened Def Con from 1.63894e-006 to 1.64694e-006
Heightened Def Con from 1.64695e-006 to 1.66495e-006
Heightened Def Con from 1.66607e-006 to 1.67107e-006
Heightened Def Con from 1.67186e-006 to 1.67486e-006
Heightened Def Con from 1.6777e-006 to 1.6837e-006
Heightened Def Con from 1.68622e-006 to 1.68922e-006
Heightened Def Con from 1.68978e-006 to 1.70778e-006
Heightened Def Con from 1.70905e-006 to 1.71205e-006
Heightened Def Con from 1.71933e-006 to 1.72633e-006
Heightened Def Con from 1.727e-006 to 1.734e-006
Heightened Def Con from 1.73477e-006 to 1.73777e-006
Heightened Def Con from 1.73941e-006 to 1.74641e-006
Heightened Def Con from 1.74693e-006 to 1.75193e-006
Heightened Def Con from 1.75514e-006 to 1.76214e-006
Heightened Def Con from 1.76215e-006 to 1.76815e-006
Heightened Def Con from 1.76869e-006 to 1.77569e-006
Heightened Def Con from 1.77675e-006 to 1.79175e-006
Heightened Def Con from 1.79616e-006 to 1.80016e-006
Heightened Def Con from 1.80019e-006 to 1.80719e-006
Heightened Def Con from 1.80771e-006 to 1.81171e-006
Heightened Def Con from 1.81288e-006 to 1.81688e-006
Heightened Def Con from 1.81787e-006 to 1.83287e-006
Heightened Def Con from 1.83361e-006 to 1.83761e-006
Heightened Def Con from 1.83795e-006 to 1.84095e-006
Heightened Def Con from 1.85248e-006 to 1.85848e-006
Heightened Def Con from 1.85934e-006 to 1.86334e-006
Heightened Def Con from 1.86978e-006 to 1.87678e-006
Heightened Def Con from 1.88224e-006 to 1.89024e-006
Heightened Def Con from 1.89286e-006 to 1.89886e-006
Heightened Def Con from 1.90315e-006 to 1.90615e-006
Heightened Def Con from 1.90953e-006 to 1.91953e-006
Heightened Def Con from 1.92071e-006 to 1.92571e-006
Heightened Def Con from 1.92799e-006 to 1.92999e-006
Heightened Def Con from 1.93212e-006 to 1.93812e-006
Heightened Def Con from 1.94492e-006 to 1.95892e-006
Heightened Def Con from 1.98142e-006 to 1.98642e-006
Heightened Def Con from 1.98737e-006 to 1.99237e-006
Heightened Def Con from 2.01854e-006 to 2.02254e-006
Heightened Def Con from 2.0251e-006 to 2.0391e-006
Heightened Def Con from 2.04173e-006 to 2.04573e-006
Heightened Def Con from 2.04574e-006 to 2.04874e-006
Heightened Def Con from 2.0494e-006 to 2.0564e-006
Heightened Def Con from 2.08667e-006 to 2.08967e-006
Heightened Def Con from 2.09259e-006 to 2.09559e-006
Heightened Def Con from 2.09936e-006 to 2.10236e-006
Heightened Def Con from 2.11925e-006 to 2.12825e-006
Heightened Def Con from 0.000210037 to 0.000210043
Heightened Def Con from 0.000210047 to 0.000210057
Heightened Def Con from 0.000210062 to 0.000210066
Heightened Def Con from 0.000210069 to 0.000210073
Heightened Def Con from 0.000210073 to 0.000210076
Heightened Def Con from 0.000210076 to 0.00021008
Heightened Def Con from 0.00021008 to 0.000210085
Heightened Def Con from 0.000210087 to 0.000210095
Heightened Def Con from 0.000210114 to 0.000210121
Heightened Def Con from 0.000210122 to 0.000210124
Heightened Def Con from 0.000210126 to 0.000210129
Heightened Def Con from 0.000210138 to 0.000210147
Heightened Def Con from 0.000210153 to 0.000210157
Heightened Def Con from 0.000210159 to 0.000210164
Heightened Def Con from 0.000210174 to 0.000210179
Heightened Def Con from 0.000210192 to 0.0002102
Heightened Def Con from 0.000210202 to 0.000210205
Heightened Def Con from 0.000210218 to 0.000210223
Heightened Def Con from 0.000210229 to 0.000210247
Heightened Def Con from 0.000210251 to 0.000210259
Heightened Def Con from 0.000210262 to 0.000210266
Heightened Def Con from 0.000210269 to 0.000210274
Heightened Def Con from 0.000210274 to 0.00021028
Heightened Def Con from 0.000210281 to 0.000210284
Heightened Def Con from 0.000210296 to 0.000210299
Heightened Def Con from 0.000210304 to 0.000210323
Heightened Def Con from 0.000210325 to 0.000210328
Heightened Def Con from 0.000210339 to 0.000210343
Heightened Def Con from 0.000210343 to 0.000210347
Heightened Def Con from 0.00021035 to 0.000210356
Heightened Def Con from 0.000210362 to 0.000210365
Heightened Def Con from 0.000210373 to 0.000210379
Heightened Def Con from 0.000210403 to 0.000210406
Heightened Def Con from 0.000210415 to 0.000210419
Heightened Def Con from 0.000210423 to 0.000210425
Heightened Def Con from 0.000210427 to 0.000210434
Heightened Def Con from 0.000210437 to 0.00021044
Heightened Def Con from 0.00021044 to 0.000210445
Heightened Def Con from 0.000210447 to 0.000210451
Heightened Def Con from 0.000210458 to 0.000210461
Heightened Def Con from 0.000210461 to 0.000210467
Heightened Def Con from 0.000210472 to 0.000210476
Heightened Def Con from 0.000210489 to 0.000210492
Heightened Def Con from 0.000210492 to 0.000210495
Heightened Def Con from 0.000210503 to 0.000210506
Heightened Def Con from 0.00021051 to 0.000210515
Heightened Def Con from 0.000210516 to 0.00021052
Heightened Def Con from 0.00021053 to 0.000210533
Heightened Def Con from 0.000210537 to 0.000210543
Heightened Def Con from 0.000210552 to 0.000210555
Heightened Def Con from 0.000210565 to 0.00021057
Heightened Def Con from 0.000210572 to 0.000210575
Heightened Def Con from 0.00021058 to 0.000210582
Heightened Def Con from 0.000210584 to 0.000210587
Heightened Def Con from 0.000210592 to 0.000210596
Heightened Def Con from 0.000210607 to 0.000210609
Heightened Def Con from 0.000210611 to 0.000210613
Heightened Def Con from 0.00021063 to 0.000210635
Heightened Def Con from 0.000210642 to 0.000210647
Heightened Def Con from 0.00021065 to 0.000210656
Heightened Def Con from 0.000210656 to 0.000210662
Heightened Def Con from 0.000210663 to 0.000210666
Heightened Def Con from 0.000210666 to 0.00021067
Heightened Def Con from 0.000210678 to 0.000210687
Heightened Def Con from 0.000210688 to 0.000210693
Heightened Def Con from 0.000210696 to 0.000210699
Heightened Def Con from 0.000210699 to 0.000210701
Heightened Def Con from 0.00021072 to 0.000210723
Heightened Def Con from 0.000210727 to 0.000210737
Heightened Def Con from 0.000210774 to 0.000210777
Heightened Def Con from 0.000210785 to 0.000210788
Heightened Def Con from 0.000210791 to 0.000210796
Heightened Def Con from 0.000210802 to 0.000210805
Heightened Def Con from 0.000210805 to 0.000210808
Heightened Def Con from 0.000210823 to 0.000210835
Heightened Def Con from 0.000210839 to 0.000210842
Heightened Def Con from 0.000210844 to 0.000210847
Heightened Def Con from 0.000210847 to 0.000210888
Heightened Def Con from 0.000210892 to 0.000210895
Heightened Def Con from 0.000210899 to 0.000210909
Heightened Def Con from 0.000210913 to 0.000210928
Heightened Def Con from 0.000210929 to 0.000210931
Heightened Def Con from 0.000210932 to 0.000210936
Heightened Def Con from 0.000210937 to 0.000210945
Heightened Def Con from 0.000210946 to 0.000210953
Heightened Def Con from 0.000210959 to 0.000210969
Heightened Def Con from 0.000210971 to 0.000210974
Heightened Def Con from 0.000210979 to 0.000210981
Heightened Def Con from 0.000210985 to 0.000210987
Heightened Def Con from 0.000210988 to 0.000210991
Heightened Def Con from 0.000210991 to 0.000210996
Heightened Def Con from 0.000210998 to 0.000211001
Heightened Def Con from 0.000211002 to 0.000211007
Heightened Def Con from 0.000211008 to 0.000211012
Heightened Def Con from 0.000211013 to 0.000211016
Heightened Def Con from 0.000211016 to 0.000211024
Heightened Def Con from 0.000211048 to 0.00021105
Heightened Def Con from 0.00021105 to 0.000211064
Heightened Def Con from 0.000211064 to 0.000211068
Heightened Def Con from 0.000211069 to 0.000211072
Heightened Def Con from 0.000211075 to 0.000211079
Heightened Def Con from 0.000211088 to 0.000211092
Heightened Def Con from 0.000211107 to 0.000211112
Heightened Def Con from 0.000211117 to 0.000211121
Heightened Def Con from 0.000211123 to 0.00021113
Heightened Def Con from 0.000211133 to 0.000211135
Heightened Def Con from 0.000211139 to 0.000211148
Heightened Def Con from 0.00021115 to 0.000211156
Heightened Def Con from 0.000211161 to 0.000211164
Heightened Def Con from 0.000211164 to 0.000211173
Heightened Def Con from 0.000211181 to 0.000211189
Heightened Def Con from 0.000211189 to 0.000211198
Heightened Def Con from 0.0002112 to 0.000211203
Heightened Def Con from 0.000211207 to 0.000211213
Heightened Def Con from 0.000211215 to 0.000211218
Heightened Def Con from 0.000211222 to 0.000211227
Heightened Def Con from 0.000211227 to 0.000211243
Heightened Def Con from 0.000211248 to 0.000211253
Heightened Def Con from 0.000211268 to 0.000211271
Heightened Def Con from 0.000211273 to 0.000211276
Heightened Def Con from 0.000211279 to 0.000211283
Heightened Def Con from 0.000211284 to 0.000211287
Heightened Def Con from 0.000211292 to 0.000211299
Heightened Def Con from 0.000211301 to 0.000211305
Heightened Def Con from 0.000211305 to 0.000211316
Heightened Def Con from 0.000211318 to 0.000211322
Heightened Def Con from 0.000211323 to 0.00021133
Heightened Def Con from 0.000211335 to 0.000211341
Heightened Def Con from 0.000211343 to 0.000211346
Heightened Def Con from 0.000211348 to 0.000211351
Heightened Def Con from 0.000211351 to 0.000211354
Heightened Def Con from 0.000211357 to 0.000211364
Heightened Def Con from 0.000211367 to 0.00021137
Heightened Def Con from 0.000211376 to 0.000211382
Heightened Def Con from 0.000211384 to 0.000211388
Heightened Def Con from 0.000211401 to 0.000211406
Heightened Def Con from 0.000211411 to 0.000211421
Heightened Def Con from 0.000211422 to 0.000211429
Heightened Def Con from 0.000211438 to 0.000211441
Heightened Def Con from 0.00021148 to 0.000211488
Heightened Def Con from 0.00021149 to 0.000211494
Heightened Def Con from 0.00021151 to 0.000211512
Heightened Def Con from 0.000211513 to 0.000211518
Heightened Def Con from 0.00021152 to 0.000211527
Heightened Def Con from 0.000211531 to 0.000211539
Heightened Def Con from 0.000211548 to 0.000211562
Heightened Def Con from 0.000211564 to 0.000211568
Heightened Def Con from 0.00021158 to 0.000211598
Heightened Def Con from 0.0002116 to 0.000211603
Heightened Def Con from 0.000211605 to 0.000211608
Heightened Def Con from 0.000211615 to 0.00021162
Heightened Def Con from 0.000211622 to 0.000211626
Heightened Def Con from 0.000211633 to 0.00021164
Heightened Def Con from 0.000211645 to 0.000211651
Heightened Def Con from 0.000211653 to 0.000211657
Heightened Def Con from 0.000211658 to 0.000211663
Heightened Def Con from 0.000211666 to 0.000211671
Heightened Def Con from 0.000211675 to 0.000211678
Heightened Def Con from 0.000211678 to 0.000211682
Heightened Def Con from 0.000211687 to 0.000211691
Heightened Def Con from 0.000211692 to 0.000211696
Heightened Def Con from 0.000211698 to 0.0002117
Heightened Def Con from 0.000211702 to 0.000211707
Heightened Def Con from 0.000211709 to 0.000211715
Heightened Def Con from 0.000211721 to 0.000211724
Heightened Def Con from 0.000211733 to 0.000211738
Heightened Def Con from 0.000211739 to 0.000211746
Heightened Def Con from 0.000211746 to 0.000211749
Heightened Def Con from 0.000211757 to 0.000211761
Heightened Def Con from 0.000211783 to 0.00021179
Heightened Def Con from 0.000211793 to 0.000211796
Heightened Def Con from 0.000211799 to 0.000211804
Heightened Def Con from 0.000211811 to 0.000211814
Heightened Def Con from 0.000211814 to 0.000211817
Heightened Def Con from 0.000211826 to 0.000211836
Heightened Def Con from 0.000211838 to 0.000211842
Heightened Def Con from 0.000211879 to 0.000211884
Heightened Def Con from 0.0002119 to 0.000211903
Heightened Def Con from 0.000211904 to 0.000211908
Heightened Def Con from 0.000211915 to 0.000211921
Heightened Def Con from 0.00021193 to 0.000211935
Heightened Def Con from 0.000211935 to 0.000211938
Heightened Def Con from 0.000211938 to 0.000211947
Heightened Def Con from 0.000211949 to 0.000211952
Heightened Def Con from 0.000211958 to 0.000211966
Heightened Def Con from 0.000211972 to 0.000211976
Heightened Def Con from 0.000211976 to 0.000211991
Heightened Def Con from 0.000211993 to 0.000212
Heightened Def Con from 0.000212005 to 0.000212008
Heightened Def Con from 0.000212008 to 0.000212015
Heightened Def Con from 0.000212017 to 0.000212019
Heightened Def Con from 0.000212022 to 0.000212029
Heightened Def Con from 0.000212038 to 0.000212044
Heightened Def Con from 0.000212045 to 0.000212052
Heightened Def Con from 0.000212053 to 0.000212059
Heightened Def Con from 0.000212061 to 0.000212065
Heightened Def Con from 0.000212066 to 0.000212087
Heightened Def Con from 0.000212087 to 0.000212091
Heightened Def Con from 0.000212093 to 0.000212098
Heightened Def Con from 0.000212101 to 0.000212107
Heightened Def Con from 0.000212107 to 0.000212111
Heightened Def Con from 0.000212112 to 0.000212116
Heightened Def Con from 0.000212118 to 0.000212133
Heightened Def Con from 0.000212139 to 0.000212143
Heightened Def Con from 0.000212143 to 0.000212165
Heightened Def Con from 0.000212165 to 0.000212168
Heightened Def Con from 0.000212169 to 0.000212175
Heightened Def Con from 0.000212176 to 0.000212188
Heightened Def Con from 0.000212188 to 0.000212199
Heightened Def Con from 0.000212199 to 0.00021221
Heightened Def Con from 0.000212212 to 0.000212221
Heightened Def Con from 0.000212233 to 0.000212236
Heightened Def Con from 0.000212236 to 0.000212259
Heightened Def Con from 0.000212262 to 0.000212266
Heightened Def Con from 0.000212281 to 0.000212285
Heightened Def Con from 0.000212285 to 0.000212288
Heightened Def Con from 0.000212289 to 0.000212294
Heightened Def Con from 0.000212295 to 0.000212302
Heightened Def Con from 0.000212305 to 0.000212309
Heightened Def Con from 0.000212319 to 0.000212322
Heightened Def Con from 0.000212326 to 0.000212334
Heightened Def Con from 0.000212335 to 0.000212337
Heightened Def Con from 0.000212337 to 0.000212344
Heightened Def Con from 0.000212346 to 0.000212352
Heightened Def Con from 0.000212352 to 0.000212362
Heightened Def Con from 0.000212362 to 0.000212368
Heightened Def Con from 0.000212371 to 0.000212375
Heightened Def Con from 0.000212375 to 0.000212379
Heightened Def Con from 0.000212379 to 0.000212382
Heightened Def Con from 0.000212383 to 0.000212396
Heightened Def Con from 0.000212397 to 0.000212402
Heightened Def Con from 0.000212404 to 0.000212408
Heightened Def Con from 0.000212408 to 0.00021242
Heightened Def Con from 0.000212422 to 0.00021244
Heightened Def Con from 0.00021244 to 0.000212445
Heightened Def Con from 0.000212445 to 0.000212458
Heightened Def Con from 0.000212458 to 0.000212465
Heightened Def Con from 0.000212465 to 0.000212467
Heightened Def Con from 0.000212469 to 0.000212479
Heightened Def Con from 0.000212479 to 0.00021249
Heightened Def Con from 0.000212491 to 0.000212494
Heightened Def Con from 0.000212498 to 0.000212502
Heightened Def Con from 0.000212502 to 0.00021251
Heightened Def Con from 0.000212512 to 0.000212514
Heightened Def Con from 0.000212516 to 0.000212523
Heightened Def Con from 0.000212524 to 0.000212528
Heightened Def Con from 0.000212532 to 0.000212535
Heightened Def Con from 0.000212535 to 0.000212545
Heightened Def Con from 0.000212558 to 0.000212565
Heightened Def Con from 0.000212565 to 0.000212571
Heightened Def Con from 0.000212573 to 0.000212576
Heightened Def Con from 0.000212586 to 0.000212589
Heightened Def Con from 0.000212591 to 0.000212597
Heightened Def Con from 0.000212597 to 0.000212605
Heightened Def Con from 0.000212608 to 0.00021262
Heightened Def Con from 0.00021263 to 0.000212633
Heightened Def Con from 0.000212633 to 0.000212635
Heightened Def Con from 0.000212635 to 0.000212641
Heightened Def Con from 0.000212646 to 0.000212654
Heightened Def Con from 0.000212655 to 0.000212658
Heightened Def Con from 0.000212662 to 0.000212668
Heightened Def Con from 0.000212669 to 0.000212674
Heightened Def Con from 0.000212679 to 0.000212682
Heightened Def Con from 0.000212683 to 0.000212686
Heightened Def Con from 0.00021269 to 0.000212693
Heightened Def Con from 0.000212694 to 0.000212697
Heightened Def Con from 0.000212697 to 0.0002127
Heightened Def Con from 0.0002127 to 0.000212705
Heightened Def Con from 0.000212708 to 0.000212711
Heightened Def Con from 0.000212717 to 0.000212722
Heightened Def Con from 0.000212725 to 0.000212731
Heightened Def Con from 0.000212731 to 0.000212738
Heightened Def Con from 0.000212739 to 0.000212754
Heightened Def Con from 0.000212757 to 0.000212763
Heightened Def Con from 0.000212764 to 0.000212772
Heightened Def Con from 0.000212774 to 0.00021278
Heightened Def Con from 0.000212781 to 0.000212788
Heightened Def Con from 0.00021279 to 0.000212803
Heightened Def Con from 0.000212807 to 0.000212812
Heightened Def Con from 0.000212815 to 0.000212818
Heightened Def Con from 0.00021282 to 0.000212823
Heightened Def Con from 0.000212825 to 0.000212833
Heightened Def Con from 0.000212838 to 0.000212843
Heightened Def Con from 0.000212848 to 0.000212857
Heightened Def Con from 0.000212859 to 0.000212863
Heightened Def Con from 0.000212864 to 0.000212868
Heightened Def Con from 0.00021287 to 0.000212873
Heightened Def Con from 0.000212882 to 0.000212885
Heightened Def Con from 0.000212885 to 0.000212892
Heightened Def Con from 0.000212895 to 0.000212899
Heightened Def Con from 0.000212899 to 0.000212903
Heightened Def Con from 0.000212904 to 0.000212909
Heightened Def Con from 0.00021291 to 0.000212918
Heightened Def Con from 0.00021292 to 0.000212928
Heightened Def Con from 0.000212933 to 0.000212939
Heightened Def Con from 0.000212939 to 0.000212948
Heightened Def Con from 0.000212949 to 0.00021297
Heightened Def Con from 0.000212971 to 0.000212973
Heightened Def Con from 0.000212973 to 0.000212981
Heightened Def Con from 0.000212983 to 0.000212986
Heightened Def Con from 0.000212986 to 0.000212991
Heightened Def Con from 0.000212992 to 0.000212995
Heightened Def Con from 0.000212997 to 0.000213
Heightened Def Con from 0.000213001 to 0.000213003
Heightened Def Con from 0.000213003 to 0.000213009
Heightened Def Con from 0.000213011 to 0.000213015
Heightened Def Con from 0.000213015 to 0.000213019
Heightened Def Con from 0.000213022 to 0.000213026
Heightened Def Con from 0.000213046 to 0.00021305
Heightened Def Con from 0.000213051 to 0.000213058
Heightened Def Con from 0.00021306 to 0.000213063
Heightened Def Con from 0.000213063 to 0.000213068
Heightened Def Con from 0.000213069 to 0.000213073
Heightened Def Con from 0.000213073 to 0.000213078
Heightened Def Con from 0.000213081 to 0.000213085
Heightened Def Con from 0.000213085 to 0.000213089
Heightened Def Con from 0.000213089 to 0.000213093
Heightened Def Con from 0.000213097 to 0.000213103
Heightened Def Con from 0.000213105 to 0.000213107
Heightened Def Con from 0.000213107 to 0.00021311
Heightened Def Con from 0.000213113 to 0.00021312
Heightened Def Con from 0.000213124 to 0.000213126
Heightened Def Con from 0.000213134 to 0.000213139
Heightened Def Con from 0.000213141 to 0.000213158
Heightened Def Con from 0.000213163 to 0.000213167
Heightened Def Con from 0.000213168 to 0.000213176
Heightened Def Con from 0.000213177 to 0.000213181
Heightened Def Con from 0.000213202 to 0.000213207
Heightened Def Con from 0.000213208 to 0.000213211
Heightened Def Con from 0.000213212 to 0.000213216
Heightened Def Con from 0.000213223 to 0.000213226
Heightened Def Con from 0.000213239 to 0.000213245
Heightened Def Con from 0.000213246 to 0.000213249
Heightened Def Con from 0.000213249 to 0.000213253
Heightened Def Con from 0.000213256 to 0.000213259
Heightened Def Con from 0.000213265 to 0.000213277
Heightened Def Con from 0.00021328 to 0.000213283
Heightened Def Con from 0.000213284 to 0.000213288
Heightened Def Con from 0.000213294 to 0.000213306
Heightened Def Con from 0.000213308 to 0.000213314
Heightened Def Con from 0.000213315 to 0.000213319
Heightened Def Con from 0.00021332 to 0.000213324
Heightened Def Con from 0.000213325 to 0.000213337
Heightened Def Con from 0.000213341 to 0.000213352
Heightened Def Con from 0.000213359 to 0.000213362
Heightened Def Con from 0.000213372 to 0.000213376
Heightened Def Con from 0.000213387 to 0.00021339
Heightened Def Con from 0.000213392 to 0.000213395
Heightened Def Con from 0.000213398 to 0.000213418
Heightened Def Con from 0.000213418 to 0.000213423
Heightened Def Con from 0.000213426 to 0.000213431
Heightened Def Con from 0.000213432 to 0.000213438
Heightened Def Con from 0.00021344 to 0.000213443
Heightened Def Con from 0.000213445 to 0.000213451
Heightened Def Con from 0.000213479 to 0.000213482
Heightened Def Con from 0.000213487 to 0.00021349
Heightened Def Con from 0.000213493 to 0.000213495
Heightened Def Con from 0.000213496 to 0.000213502
Heightened Def Con from 0.000213504 to 0.000213506
Heightened Def Con from 0.000213508 to 0.00021351
Heightened Def Con from 0.000213513 to 0.000213516
Heightened Def Con from 0.000213517 to 0.000213525
Heightened Def Con from 0.000213529 to 0.000213539
Heightened Def Con from 0.00021354 to 0.000213543
Heightened Def Con from 0.000213545 to 0.000213553
Heightened Def Con from 0.000213554 to 0.000213559
Heightened Def Con from 0.000213561 to 0.000213566
Heightened Def Con from 0.000213582 to 0.000213592
Heightened Def Con from 0.000213593 to 0.000213603
Heightened Def Con from 0.000213607 to 0.000213611
Heightened Def Con from 0.000213611 to 0.000213631
Heightened Def Con from 0.000213631 to 0.000213671
Heightened Def Con from 0.000213673 to 0.000213677
Heightened Def Con from 0.000213678 to 0.000213687
Heightened Def Con from 0.000213689 to 0.000213692
Heightened Def Con from 0.000213694 to 0.000213697
Heightened Def Con from 0.000213698 to 0.000213703
Heightened Def Con from 0.000213704 to 0.000213712
Heightened Def Con from 0.000213713 to 0.000213721
Heightened Def Con from 0.000213725 to 0.000213728
Heightened Def Con from 0.00021373 to 0.000213736
Heightened Def Con from 0.000213741 to 0.000213747
Heightened Def Con from 0.00021376 to 0.000213764
Heightened Def Con from 0.000213783 to 0.000213787
Heightened Def Con from 0.000213788 to 0.000213791
Heightened Def Con from 0.000213792 to 0.000213794
Heightened Def Con from 0.000213795 to 0.000213798
Heightened Def Con from 0.000213798 to 0.000213802
Heightened Def Con from 0.000213803 to 0.000213805
Heightened Def Con from 0.000213807 to 0.00021381
Heightened Def Con from 0.000213813 to 0.000213816
Heightened Def Con from 0.000213821 to 0.000213824
Heightened Def Con from 0.000213825 to 0.000213828
Heightened Def Con from 0.000213831 to 0.000213843
Heightened Def Con from 0.000213843 to 0.000213846
Heightened Def Con from 0.000213848 to 0.000213856
Heightened Def Con from 0.000213857 to 0.00021386
Heightened Def Con from 0.000213863 to 0.000213865
Heightened Def Con from 0.000213866 to 0.000213871
Heightened Def Con from 0.000213875 to 0.00021388
Heightened Def Con from 0.000213882 to 0.000213886
Heightened Def Con from 0.000213894 to 0.000213899
Heightened Def Con from 0.000213899 to 0.000213905
Heightened Def Con from 0.000213905 to 0.000213908
Heightened Def Con from 0.000213908 to 0.000213916
Heightened Def Con from 0.000213916 to 0.000213919
Heightened Def Con from 0.00021392 to 0.000213923
Heightened Def Con from 0.000213924 to 0.00021394
Heightened Def Con from 0.000213942 to 0.000213946
Heightened Def Con from 0.000213947 to 0.000213959
Heightened Def Con from 0.000213963 to 0.000213971
Heightened Def Con from 0.000213971 to 0.000213977
Heightened Def Con from 0.000213978 to 0.00021399
Heightened Def Con from 0.00021399 to 0.000213996
Heightened Def Con from 0.000213997 to 0.000214005
Heightened Def Con from 0.00021401 to 0.000214018
Heightened Def Con from 0.000214026 to 0.000214035
Heightened Def Con from 0.000214035 to 0.000214037
Heightened Def Con from 0.000214037 to 0.000214043
Heightened Def Con from 0.000214043 to 0.000214047
Heightened Def Con from 0.000214049 to 0.000214052
Heightened Def Con from 0.000214054 to 0.000214062
Heightened Def Con from 0.000214062 to 0.000214064
Heightened Def Con from 0.000214064 to 0.000214068
Heightened Def Con from 0.000214068 to 0.000214098
Heightened Def Con from 0.000214099 to 0.000214103
Heightened Def Con from 0.000214116 to 0.00021412
Heightened Def Con from 0.000214121 to 0.000214129
Heightened Def Con from 0.000214129 to 0.000214138
Heightened Def Con from 0.000214146 to 0.000214149
Heightened Def Con from 0.000214151 to 0.000214156
Heightened Def Con from 0.000214157 to 0.000214167
Heightened Def Con from 0.00021417 to 0.000214184
Heightened Def Con from 0.000214189 to 0.000214197
Heightened Def Con from 0.000214207 to 0.000214209
Heightened Def Con from 0.00021421 to 0.000214213
Heightened Def Con from 0.000214216 to 0.000214222
Heightened Def Con from 0.000214224 to 0.00021423
Heightened Def Con from 0.000214231 to 0.000214233
Heightened Def Con from 0.000214234 to 0.00021424
Heightened Def Con from 0.000214242 to 0.000214245
Heightened Def Con from 0.000214246 to 0.00021425
Heightened Def Con from 0.000214252 to 0.00021426
Heightened Def Con from 0.00021426 to 0.000214269
Heightened Def Con from 0.000214269 to 0.000214274
Heightened Def Con from 0.000214276 to 0.000214279
Heightened Def Con from 0.000214279 to 0.000214282
Heightened Def Con from 0.000214284 to 0.000214288
Heightened Def Con from 0.000214288 to 0.000214292
Heightened Def Con from 0.000214296 to 0.0002143
Heightened Def Con from 0.000214302 to 0.000214304
Heightened Def Con from 0.000214305 to 0.000214308
Heightened Def Con from 0.000214311 to 0.000214315
Heightened Def Con from 0.000214318 to 0.000214321
Heightened Def Con from 0.000214343 to 0.000214353
Heightened Def Con from 0.000214354 to 0.000214358
Heightened Def Con from 0.000214361 to 0.000214364
Heightened Def Con from 0.000214371 to 0.000214374
Heightened Def Con from 0.000214374 to 0.000214377
Heightened Def Con from 0.000214381 to 0.000214385
Heightened Def Con from 0.000214386 to 0.000214391
Heightened Def Con from 0.000214395 to 0.000214399
Heightened Def Con from 0.000214401 to 0.000214404
Heightened Def Con from 0.000214404 to 0.000214407
Heightened Def Con from 0.00021441 to 0.000214417
Heightened Def Con from 0.000214418 to 0.000214421
Heightened Def Con from 0.000214431 to 0.000214437
Heightened Def Con from 0.000214452 to 0.000214456
Heightened Def Con from 0.000214459 to 0.000214464
Heightened Def Con from 0.000214465 to 0.00021447
Heightened Def Con from 0.000214476 to 0.000214481
Heightened Def Con from 0.000214489 to 0.000214496
Heightened Def Con from 0.000214497 to 0.000214505
Heightened Def Con from 0.000214511 to 0.000214514
Heightened Def Con from 0.000214532 to 0.000214541
Heightened Def Con from 0.000214544 to 0.000214558
Heightened Def Con from 0.000214564 to 0.000214567
Heightened Def Con from 0.000214568 to 0.000214571
Heightened Def Con from 0.000214572 to 0.000214575
Heightened Def Con from 0.000214576 to 0.00021458
Heightened Def Con from 0.000214584 to 0.000214588
Heightened Def Con from 0.000214593 to 0.000214598
Heightened Def Con from 0.000214611 to 0.000214613
Heightened Def Con from 0.000214613 to 0.000214618
Heightened Def Con from 0.000214618 to 0.000214623
Heightened Def Con from 0.00021463 to 0.000214634
Heightened Def Con from 0.000214637 to 0.00021464
Heightened Def Con from 0.000214642 to 0.000214645
Heightened Def Con from 0.000214654 to 0.00021466
Heightened Def Con from 0.00021466 to 0.000214669
Heightened Def Con from 0.00021467 to 0.000214675
Heightened Def Con from 0.000214693 to 0.000214698
Heightened Def Con from 0.000214702 to 0.000214708
Heightened Def Con from 0.000214709 to 0.000214713
Heightened Def Con from 0.000214713 to 0.000214727
Heightened Def Con from 0.000214728 to 0.000214739
Heightened Def Con from 0.000214743 to 0.000214748
Heightened Def Con from 0.00021475 to 0.000214757
Heightened Def Con from 0.000214761 to 0.000214766
Heightened Def Con from 0.000214767 to 0.000214772
Heightened Def Con from 0.000214773 to 0.000214777
Heightened Def Con from 0.000214782 to 0.000214808
Heightened Def Con from 0.00021481 to 0.000214814
Heightened Def Con from 0.000214816 to 0.000214818
Heightened Def Con from 0.00021482 to 0.000214842
Heightened Def Con from 0.000214843 to 0.000214854
Heightened Def Con from 0.000214855 to 0.000214861
Heightened Def Con from 0.000214862 to 0.000214866
Heightened Def Con from 0.000214868 to 0.000214873
Heightened Def Con from 0.000214875 to 0.000214879
Heightened Def Con from 0.000214883 to 0.000214886
Heightened Def Con from 0.000214888 to 0.000214897
Heightened Def Con from 0.000214898 to 0.000214901
Heightened Def Con from 0.000214905 to 0.000214924
Heightened Def Con from 0.000214924 to 0.000214927
Heightened Def Con from 0.000214949 to 0.000214953
Heightened Def Con from 0.000214954 to 0.000214966
Heightened Def Con from 0.000214971 to 0.000214977
Heightened Def Con from 0.000214977 to 0.000214983
Heightened Def Con from 0.000214983 to 0.000214987
Heightened Def Con from 0.000214989 to 0.000214992
Heightened Def Con from 0.000214995 to 0.000214998
Heightened Def Con from 0.000215003 to 0.000215006
Heightened Def Con from 0.000215007 to 0.000215014
Heightened Def Con from 0.000215018 to 0.000215023
Heightened Def Con from 0.000215024 to 0.000215029
Heightened Def Con from 0.000215031 to 0.000215034
Heightened Def Con from 0.000215039 to 0.000215059
Heightened Def Con from 0.000215062 to 0.000215065
Heightened Def Con from 0.000215066 to 0.000215077
Heightened Def Con from 0.000215077 to 0.00021509
Heightened Def Con from 0.000215091 to 0.000215094
Heightened Def Con from 0.000215094 to 0.000215097
Heightened Def Con from 0.000215103 to 0.000215114
Heightened Def Con from 0.000215114 to 0.000215119
Heightened Def Con from 0.000215119 to 0.000215129
Heightened Def Con from 0.000215129 to 0.000215138
Heightened Def Con from 0.000215138 to 0.000215143
Heightened Def Con from 0.000215164 to 0.00021517
Heightened Def Con from 0.00021518 to 0.000215186
Heightened Def Con from 0.000215188 to 0.000215191
Heightened Def Con from 0.000215207 to 0.00021521
Heightened Def Con from 0.000215213 to 0.00021522
Heightened Def Con from 0.00021522 to 0.000215223
Heightened Def Con from 0.000215224 to 0.000215226
Heightened Def Con from 0.000215227 to 0.000215236
Heightened Def Con from 0.000215236 to 0.000215244
Heightened Def Con from 0.000215247 to 0.000215256
Heightened Def Con from 0.000215256 to 0.000215261
Heightened Def Con from 0.000215261 to 0.000215265
Heightened Def Con from 0.000215266 to 0.000215271
Heightened Def Con from 0.000215272 to 0.000215275
Heightened Def Con from 0.000215275 to 0.000215278
Heightened Def Con from 0.000215283 to 0.000215288
Heightened Def Con from 0.000215289 to 0.000215295
Heightened Def Con from 0.000215297 to 0.000215306
Heightened Def Con from 0.000215312 to 0.00021532
Heightened Def Con from 0.000215324 to 0.000215327
Heightened Def Con from 0.000215327 to 0.000215333
Heightened Def Con from 0.000215333 to 0.000215336
Heightened Def Con from 0.000215338 to 0.000215341
Heightened Def Con from 0.000215349 to 0.000215355
Heightened Def Con from 0.000215359 to 0.000215364
Heightened Def Con from 0.000215364 to 0.000215379
Heightened Def Con from 0.000215383 to 0.000215386
Heightened Def Con from 0.000215387 to 0.000215393
Heightened Def Con from 0.000215393 to 0.000215401
Heightened Def Con from 0.000215401 to 0.000215411
Heightened Def Con from 0.000215412 to 0.000215414
Heightened Def Con from 0.000215414 to 0.000215416
Heightened Def Con from 0.000215417 to 0.00021542
Heightened Def Con from 0.00021542 to 0.000215424
Heightened Def Con from 0.000215424 to 0.000215429
Heightened Def Con from 0.000215429 to 0.000215432
Heightened Def Con from 0.000215434 to 0.000215437
Heightened Def Con from 0.000215439 to 0.000215443
Heightened Def Con from 0.000215443 to 0.000215448
Heightened Def Con from 0.000215448 to 0.000215451
Heightened Def Con from 0.000215454 to 0.000215464
Heightened Def Con from 0.000215469 to 0.000215472
Heightened Def Con from 0.000215473 to 0.000215477
Heightened Def Con from 0.000215479 to 0.000215484
Heightened Def Con from 0.000215484 to 0.000215489
Heightened Def Con from 0.00021549 to 0.000215493
Heightened Def Con from 0.000215493 to 0.000215495
Heightened Def Con from 0.000215497 to 0.000215503
Heightened Def Con from 0.000215503 to 0.000215506
Heightened Def Con from 0.000215508 to 0.000215511
Heightened Def Con from 0.000215511 to 0.000215515
Heightened Def Con from 0.000215516 to 0.000215519
Heightened Def Con from 0.000215519 to 0.000215524
Heightened Def Con from 0.000215525 to 0.000215537
Heightened Def Con from 0.000215541 to 0.000215545
Heightened Def Con from 0.000215545 to 0.000215549
Heightened Def Con from 0.000215549 to 0.000215554
Heightened Def Con from 0.000215557 to 0.000215562
Heightened Def Con from 0.000215566 to 0.000215569
Heightened Def Con from 0.000215573 to 0.000215576
Heightened Def Con from 0.000215579 to 0.000215582
Heightened Def Con from 0.000215583 to 0.000215588
Heightened Def Con from 0.000215588 to 0.000215591
Heightened Def Con from 0.000215592 to 0.000215596
Heightened Def Con from 0.000215601 to 0.000215607
Heightened Def Con from 0.000215607 to 0.000215616
Heightened Def Con from 0.000215617 to 0.000215622
Heightened Def Con from 0.000215628 to 0.000215634
Heightened Def Con from 0.000215639 to 0.000215642
Heightened Def Con from 0.000215646 to 0.000215654
Heightened Def Con from 0.000215655 to 0.000215659
Heightened Def Con from 0.000215662 to 0.000215665
Heightened Def Con from 0.000215669 to 0.000215672
Heightened Def Con from 0.000215678 to 0.000215687
Heightened Def Con from 0.000215687 to 0.00021569
Heightened Def Con from 0.00021569 to 0.000215693
Heightened Def Con from 0.000215694 to 0.000215699
Heightened Def Con from 0.000215699 to 0.000215703
Heightened Def Con from 0.000215704 to 0.000215707
Heightened Def Con from 0.000215707 to 0.00021571
Heightened Def Con from 0.000215712 to 0.000215715
Heightened Def Con from 0.000215718 to 0.000215721
Heightened Def Con from 0.000215724 to 0.000215728
Heightened Def Con from 0.000215728 to 0.000215731
Heightened Def Con from 0.000215733 to 0.000215745
Heightened Def Con from 0.00021575 to 0.000215756
Heightened Def Con from 0.00021576 to 0.000215765
Heightened Def Con from 0.00021577 to 0.000215776
Heightened Def Con from 0.000215776 to 0.00021578
Heightened Def Con from 0.000215784 to 0.000215792
Heightened Def Con from 0.000215792 to 0.000215795
Heightened Def Con from 0.000215796 to 0.000215798
Heightened Def Con from 0.000215799 to 0.000215804
Heightened Def Con from 0.000215806 to 0.000215809
Heightened Def Con from 0.000215812 to 0.000215816
Heightened Def Con from 0.000215818 to 0.000215825
Heightened Def Con from 0.000215826 to 0.000215831
Heightened Def Con from 0.000215834 to 0.000215838
Heightened Def Con from 0.000215838 to 0.000215841
Heightened Def Con from 0.000215868 to 0.000215873
Heightened Def Con from 0.000215873 to 0.000215876
Heightened Def Con from 0.000215878 to 0.000215881
Heightened Def Con from 0.000215882 to 0.000215885
Heightened Def Con from 0.000215888 to 0.000215894
Heightened Def Con from 0.000215899 to 0.000215901
Heightened Def Con from 0.000215901 to 0.000215907
Heightened Def Con from 0.000215909 to 0.000215912
Heightened Def Con from 0.000215915 to 0.000215918
Heightened Def Con from 0.000215922 to 0.000215926
Heightened Def Con from 0.000215929 to 0.000215935
Heightened Def Con from 0.000215937 to 0.000215944
Heightened Def Con from 0.000215944 to 0.000215949
Heightened Def Con from 0.00021595 to 0.000215953
Heightened Def Con from 0.000215955 to 0.000215958
Heightened Def Con from 0.000215967 to 0.000215973
Heightened Def Con from 0.000215976 to 0.000215982
Heightened Def Con from 0.000215983 to 0.000215987
Heightened Def Con from 0.00021599 to 0.000215996
Heightened Def Con from 0.000215998 to 0.000216003
Heightened Def Con from 0.000216005 to 0.000216012
Heightened Def Con from 0.000216013 to 0.000216016
Heightened Def Con from 0.000216016 to 0.00021602
Heightened Def Con from 0.00021602 to 0.000216034
Heightened Def Con from 0.000216037 to 0.000216043
Heightened Def Con from 0.000216047 to 0.000216051
Heightened Def Con from 0.000216051 to 0.00021606
Heightened Def Con from 0.000216065 to 0.000216083
Heightened Def Con from 0.000216086 to 0.000216092
Heightened Def Con from 0.000216097 to 0.000216103
Heightened Def Con from 0.000216103 to 0.000216106
Heightened Def Con from 0.000216117 to 0.000216121
Heightened Def Con from 0.000216125 to 0.000216131
Heightened Def Con from 0.000216131 to 0.000216136
Heightened Def Con from 0.000216137 to 0.000216144
Heightened Def Con from 0.000216146 to 0.000216149
Heightened Def Con from 0.000216151 to 0.000216154
Heightened Def Con from 0.000216157 to 0.000216164
Heightened Def Con from 0.000216165 to 0.00021617
Heightened Def Con from 0.000216171 to 0.000216175
Heightened Def Con from 0.000216176 to 0.000216189
Heightened Def Con from 0.000216192 to 0.000216195
Heightened Def Con from 0.000216196 to 0.000216201
Heightened Def Con from 0.000216202 to 0.000216206
Heightened Def Con from 0.000216212 to 0.000216221
Heightened Def Con from 0.000216224 to 0.000216228
Heightened Def Con from 0.000216229 to 0.000216241
Heightened Def Con from 0.000216242 to 0.000216249
Heightened Def Con from 0.00021625 to 0.000216256
Heightened Def Con from 0.00021626 to 0.000216274
Heightened Def Con from 0.000216279 to 0.000216285
Heightened Def Con from 0.000216286 to 0.000216302
Heightened Def Con from 0.000216302 to 0.000216317
Heightened Def Con from 0.000216323 to 0.000216327
Heightened Def Con from 0.000216327 to 0.000216331
Heightened Def Con from 0.000216332 to 0.000216336
Heightened Def Con from 0.000216344 to 0.000216354
Heightened Def Con from 0.000216356 to 0.000216361
Heightened Def Con from 0.000216373 to 0.000216376
Heightened Def Con from 0.000216425 to 0.000216428
Heightened Def Con from 0.00021643 to 0.000216432
Heightened Def Con from 0.000216433 to 0.000216446
Heightened Def Con from 0.000216447 to 0.000216449
Heightened Def Con from 0.000216449 to 0.000216451
Heightened Def Con from 0.000216452 to 0.000216455
Heightened Def Con from 0.000216461 to 0.000216471
Heightened Def Con from 0.000216474 to 0.000216477
Heightened Def Con from 0.000216479 to 0.000216485
Heightened Def Con from 0.000216489 to 0.000216494
Heightened Def Con from 0.000216495 to 0.000216503
Heightened Def Con from 0.000216506 to 0.000216516
Heightened Def Con from 0.000216548 to 0.000216557
Heightened Def Con from 0.000216558 to 0.000216563
Heightened Def Con from 0.000216566 to 0.000216573
Heightened Def Con from 0.000216574 to 0.000216584
Heightened Def Con from 0.000216585 to 0.00021659
Heightened Def Con from 0.000216591 to 0.000216594
Heightened Def Con from 0.000216596 to 0.000216599
Heightened Def Con from 0.000216599 to 0.000216604
Heightened Def Con from 0.000216607 to 0.000216613
Heightened Def Con from 0.000216614 to 0.000216621
Heightened Def Con from 0.000216623 to 0.000216633
Heightened Def Con from 0.000216635 to 0.000216642
Heightened Def Con from 0.000216642 to 0.000216649
Heightened Def Con from 0.000216746 to 0.000216748
Heightened Def Con from 0.000216748 to 0.000216755
Heightened Def Con from 0.000216756 to 0.000216762
Heightened Def Con from 0.000216762 to 0.000216768
Heightened Def Con from 0.000216768 to 0.000216775
Heightened Def Con from 0.000216775 to 0.000216777
Heightened Def Con from 0.000216777 to 0.000216785
Heightened Def Con from 0.000216788 to 0.000216791
Heightened Def Con from 0.000216793 to 0.000216796
Heightened Def Con from 0.000216796 to 0.000216801
Heightened Def Con from 0.000216811 to 0.000216814
Heightened Def Con from 0.000216819 to 0.000216823
Heightened Def Con from 0.000216824 to 0.000216831
Heightened Def Con from 0.000216832 to 0.000216838
Heightened Def Con from 0.000216838 to 0.000216846
Heightened Def Con from 0.000216851 to 0.000216863
Heightened Def Con from 0.000216869 to 0.000216877
Heightened Def Con from 0.0002169 to 0.000216905
Heightened Def Con from 0.00021691 to 0.000216913
Heightened Def Con from 0.000216913 to 0.000216915
Heightened Def Con from 0.000216917 to 0.000216924
Heightened Def Con from 0.000216924 to 0.000216929
Heightened Def Con from 0.00021693 to 0.000216935
Heightened Def Con from 0.000216935 to 0.000216938
Heightened Def Con from 0.000216943 to 0.000216946
Heightened Def Con from 0.000216946 to 0.000216952
Heightened Def Con from 0.000216953 to 0.000216957
Heightened Def Con from 0.000216958 to 0.000216971
Heightened Def Con from 0.000216971 to 0.000216975
Heightened Def Con from 0.000216975 to 0.000216978
Heightened Def Con from 0.000216981 to 0.000216984
Heightened Def Con from 0.000216998 to 0.000217001
Heightened Def Con from 0.000217026 to 0.000217033
Heightened Def Con from 0.000217051 to 0.000217054
Heightened Def Con from 0.000217055 to 0.000217059
Heightened Def Con from 0.000217061 to 0.000217068
Heightened Def Con from 0.000217068 to 0.000217071
Heightened Def Con from 0.000217073 to 0.000217077
Heightened Def Con from 0.000217107 to 0.00021711
Heightened Def Con from 0.000217112 to 0.000217115
Heightened Def Con from 0.000217116 to 0.00021712
Heightened Def Con from 0.00021712 to 0.000217123
Heightened Def Con from 0.000217136 to 0.000217145
Heightened Def Con from 0.000217148 to 0.000217151
Heightened Def Con from 0.000217153 to 0.000217159
Heightened Def Con from 0.000217159 to 0.000217166
Heightened Def Con from 0.000217168 to 0.000217171
Heightened Def Con from 0.000217198 to 0.000217201
Heightened Def Con from 0.000217206 to 0.000217216
Heightened Def Con from 0.000217216 to 0.000217219
Heightened Def Con from 0.000217219 to 0.000217223
Heightened Def Con from 0.000217227 to 0.000217233
Heightened Def Con from 0.000217233 to 0.000217237
Heightened Def Con from 0.000217238 to 0.000217243
Heightened Def Con from 0.000217244 to 0.000217247
Heightened Def Con from 0.000217248 to 0.000217256
Heightened Def Con from 0.000217261 to 0.000217267
Heightened Def Con from 0.000217277 to 0.00021728
Heightened Def Con from 0.000217281 to 0.000217284
Heightened Def Con from 0.000217284 to 0.000217288
Heightened Def Con from 0.000217293 to 0.000217297
Heightened Def Con from 0.000217297 to 0.000217301
Heightened Def Con from 0.000217302 to 0.000217307
Heightened Def Con from 0.000217307 to 0.000217311
Heightened Def Con from 0.000217314 to 0.000217317
Heightened Def Con from 0.000217341 to 0.000217351
Heightened Def Con from 0.000217364 to 0.000217368
Heightened Def Con from 0.000217372 to 0.000217375
Heightened Def Con from 0.000217381 to 0.000217385
Heightened Def Con from 0.000217388 to 0.000217391
Heightened Def Con from 0.000217405 to 0.00021741
Heightened Def Con from 0.000217411 to 0.000217414
Heightened Def Con from 0.000217414 to 0.00021742
Heightened Def Con from 0.000217427 to 0.00021743
Heightened Def Con from 0.000217432 to 0.000217434
Heightened Def Con from 0.000217435 to 0.000217441
Heightened Def Con from 0.000217445 to 0.000217451
Heightened Def Con from 0.000217452 to 0.000217457
Heightened Def Con from 0.000217461 to 0.000217466
Heightened Def Con from 0.00021747 to 0.000217475
Heightened Def Con from 0.000217475 to 0.00021748
Heightened Def Con from 0.000217482 to 0.000217485
Heightened Def Con from 0.000217485 to 0.000217491
Heightened Def Con from 0.000217491 to 0.000217495
Heightened Def Con from 0.000217496 to 0.000217499
Heightened Def Con from 0.000217504 to 0.000217528
Heightened Def Con from 0.000217529 to 0.000217534
Heightened Def Con from 0.000217537 to 0.00021754
Heightened Def Con from 0.00021754 to 0.000217547
Heightened Def Con from 0.000217548 to 0.000217555
Heightened Def Con from 0.000217556 to 0.000217563
Heightened Def Con from 0.000217564 to 0.000217569
Heightened Def Con from 0.000217574 to 0.000217587
Heightened Def Con from 0.000217588 to 0.000217597
Heightened Def Con from 0.0002176 to 0.000217603
Heightened Def Con from 0.000217605 to 0.000217617
Heightened Def Con from 0.000217618 to 0.000217624
Heightened Def Con from 0.000217624 to 0.000217628
Heightened Def Con from 0.000217631 to 0.00021766
Heightened Def Con from 0.000217662 to 0.000217665
Heightened Def Con from 0.000217666 to 0.000217678
Heightened Def Con from 0.000217682 to 0.000217688
Heightened Def Con from 0.00021769 to 0.000217699
Heightened Def Con from 0.0002177 to 0.000217704
Heightened Def Con from 0.000217706 to 0.000217712
Heightened Def Con from 0.000217714 to 0.00021772
Heightened Def Con from 0.000217726 to 0.000217732
Heightened Def Con from 0.000217737 to 0.000217747
Heightened Def Con from 0.000217749 to 0.000217753
Heightened Def Con from 0.000217754 to 0.000217759
Heightened Def Con from 0.00021776 to 0.000217768
Heightened Def Con from 0.000217773 to 0.000217776
Heightened Def Con from 0.000217784 to 0.000217799
Heightened Def Con from 0.000217799 to 0.000217804
Heightened Def Con from 0.000217805 to 0.00021781
Heightened Def Con from 0.000217811 to 0.000217813
Heightened Def Con from 0.000217814 to 0.00021783
Heightened Def Con from 0.000217831 to 0.000217839
Heightened Def Con from 0.000217845 to 0.000217849
Heightened Def Con from 0.00021785 to 0.000217862
Heightened Def Con from 0.000217862 to 0.000217865
Heightened Def Con from 0.000217867 to 0.000217879
Heightened Def Con from 0.00021788 to 0.000217887
Heightened Def Con from 0.00021789 to 0.000217904
Heightened Def Con from 0.000217904 to 0.000217919
Heightened Def Con from 0.000217922 to 0.000217925
Heightened Def Con from 0.000217931 to 0.000217935
Heightened Def Con from 0.000217935 to 0.000217939
Heightened Def Con from 0.000217939 to 0.000217959
Heightened Def Con from 0.00021796 to 0.000217964
Heightened Def Con from 0.000217965 to 0.000217969
Heightened Def Con from 0.00021797 to 0.000217973
Heightened Def Con from 0.000217977 to 0.000217985
Heightened Def Con from 0.000217986 to 0.00021799
Heightened Def Con from 0.00021799 to 0.000217997
Heightened Def Con from 0.000218009 to 0.000218012
Heightened Def Con from 0.000218012 to 0.000218017
Heightened Def Con from 0.000218022 to 0.000218027
Heightened Def Con from 0.000218041 to 0.00021805
Heightened Def Con from 0.000218058 to 0.000218062
Heightened Def Con from 0.000218063 to 0.000218066
Heightened Def Con from 0.000218072 to 0.000218075
Heightened Def Con from 0.000218075 to 0.000218078
Heightened Def Con from 0.000218084 to 0.000218098
Heightened Def Con from 0.000218104 to 0.000218111
Heightened Def Con from 0.000218111 to 0.000218117
Heightened Def Con from 0.00021812 to 0.000218124
Heightened Def Con from 0.000218124 to 0.00021813
Heightened Def Con from 0.000218134 to 0.000218137
Heightened Def Con from 0.00021814 to 0.000218143
Heightened Def Con from 0.000218148 to 0.000218156
Heightened Def Con from 0.000218157 to 0.00021816
Heightened Def Con from 0.000218161 to 0.000218166
Heightened Def Con from 0.00021817 to 0.000218176
Heightened Def Con from 0.000218178 to 0.000218184
Heightened Def Con from 0.000218184 to 0.000218196
Heightened Def Con from 0.00021821 to 0.00021822
Heightened Def Con from 0.00021822 to 0.000218223
Heightened Def Con from 0.000218226 to 0.00021824
Heightened Def Con from 0.000218243 to 0.000218246
Heightened Def Con from 0.000218248 to 0.000218251
Heightened Def Con from 0.000218256 to 0.000218266
Heightened Def Con from 0.000218266 to 0.000218281
Heightened Def Con from 0.000218283 to 0.000218291
Heightened Def Con from 0.000218292 to 0.000218299
Heightened Def Con from 0.000218303 to 0.000218306
Heightened Def Con from 0.000218307 to 0.000218317
Heightened Def Con from 0.000218318 to 0.000218321
Heightened Def Con from 0.000218321 to 0.000218325
Heightened Def Con from 0.000218327 to 0.000218329
Heightened Def Con from 0.000218331 to 0.000218335
Heightened Def Con from 0.000218336 to 0.000218342
Heightened Def Con from 0.000218343 to 0.000218346
Heightened Def Con from 0.000218348 to 0.000218351
Heightened Def Con from 0.000218351 to 0.000218355
Heightened Def Con from 0.000218356 to 0.00021836
Heightened Def Con from 0.000218362 to 0.000218364
Heightened Def Con from 0.000218365 to 0.000218373
Heightened Def Con from 0.000218375 to 0.000218381
Heightened Def Con from 0.000218381 to 0.000218392
Heightened Def Con from 0.000218393 to 0.000218397
Heightened Def Con from 0.000218397 to 0.0002184
Heightened Def Con from 0.000218411 to 0.000218414
Heightened Def Con from 0.000218414 to 0.000218418
Heightened Def Con from 0.000218418 to 0.000218421
Heightened Def Con from 0.000218425 to 0.000218431
Heightened Def Con from 0.000218433 to 0.000218438
Heightened Def Con from 0.000218447 to 0.00021845
Heightened Def Con from 0.000218451 to 0.000218458
Heightened Def Con from 0.00021846 to 0.000218463
Heightened Def Con from 0.000218463 to 0.000218467
Heightened Def Con from 0.000218481 to 0.000218491
Heightened Def Con from 0.000218492 to 0.000218498
[...]
Heightened Def Con from 0.00396522 to 0.00396523
Heightened Def Con from 0.00396523 to 0.00396524
Heightened Def Con from 0.00396524 to 0.00396524
Heightened Def Con from 0.00396524 to 0.00396525
Heightened Def Con from 0.00396525 to 0.00396526
Heightened Def Con from 0.00396526 to 0.00396526
Heightened Def Con from 0.00396526 to 0.00396527
Heightened Def Con from 0.00396527 to 0.00396528
Heightened Def Con from 0.00396528 to 0.00396529
Heightened Def Con from 0.00396529 to 0.0039653
Heightened Def Con from 0.0039653 to 0.0039653
Heightened Def Con from 0.0039653 to 0.00396531
Heightened Def Con from 0.00396531 to 0.00396531
Heightened Def Con from 0.00396531 to 0.00396532
Heightened Def Con from 0.00396532 to 0.00396532
Heightened Def Con from 0.00396533 to 0.00396533
Heightened Def Con from 0.00396533 to 0.00396534
Heightened Def Con from 0.00396534 to 0.00396535
Heightened Def Con from 0.00396535 to 0.00396536
Heightened Def Con from 0.00396536 to 0.00396536
Heightened Def Con from 0.00396536 to 0.00396538
Heightened Def Con from 0.00396538 to 0.00396538
Heightened Def Con from 0.00396538 to 0.00396538
Heightened Def Con from 0.00396539 to 0.00396539
Heightened Def Con from 0.00396539 to 0.00396539
Heightened Def Con from 0.0039654 to 0.0039654
Heightened Def Con from 0.0039654 to 0.00396541
Heightened Def Con from 0.00396541 to 0.00396541
Heightened Def Con from 0.00396542 to 0.00396543
Heightened Def Con from 0.00396543 to 0.00396544
Heightened Def Con from 0.00396544 to 0.00396545
Heightened Def Con from 0.00396545 to 0.00396546
Heightened Def Con from 0.00396546 to 0.00396546
Heightened Def Con from 0.00396547 to 0.00396547
Heightened Def Con from 0.00396547 to 0.00396548
Heightened Def Con from 0.00396548 to 0.00396549
Heightened Def Con from 0.00396549 to 0.0039655
Heightened Def Con from 0.0039655 to 0.00396551
Heightened Def Con from 0.00396551 to 0.00396551
Heightened Def Con from 0.00396551 to 0.00396551
Heightened Def Con from 0.00396551 to 0.00396552
Heightened Def Con from 0.00396552 to 0.00396553
Heightened Def Con from 0.00396553 to 0.00396554
Heightened Def Con from 0.00396554 to 0.00396555
Heightened Def Con from 0.00396555 to 0.00396556
Heightened Def Con from 0.00396556 to 0.00396556
Heightened Def Con from 0.00396557 to 0.00396557
Heightened Def Con from 0.00396557 to 0.00396558
Heightened Def Con from 0.00396558 to 0.00396559
Heightened Def Con from 0.00396559 to 0.0039656
Heightened Def Con from 0.0039656 to 0.0039656
Heightened Def Con from 0.0039656 to 0.00396561
Heightened Def Con from 0.00396561 to 0.00396561
Heightened Def Con from 0.00396561 to 0.00396561
Heightened Def Con from 0.00396562 to 0.00396563
Heightened Def Con from 0.00396563 to 0.00396564
Heightened Def Con from 0.00396564 to 0.00396565
Heightened Def Con from 0.00396565 to 0.00396566
Heightened Def Con from 0.00396566 to 0.00396567
Heightened Def Con from 0.00396567 to 0.00396567
Heightened Def Con from 0.00396567 to 0.00396568
Heightened Def Con from 0.00396568 to 0.00396569
Heightened Def Con from 0.00396569 to 0.00396569
Heightened Def Con from 0.00396569 to 0.0039657
Heightened Def Con from 0.0039657 to 0.00396572
Heightened Def Con from 0.00396572 to 0.00396573
Heightened Def Con from 0.00396573 to 0.00396574
Heightened Def Con from 0.00396574 to 0.00396574
Heightened Def Con from 0.00396574 to 0.00396575
Heightened Def Con from 0.00396575 to 0.00396576
Heightened Def Con from 0.00396576 to 0.00396577
Heightened Def Con from 0.00396577 to 0.00396577
Heightened Def Con from 0.00396577 to 0.00396577
Heightened Def Con from 0.00396577 to 0.00396578
Heightened Def Con from 0.00396578 to 0.00396579
Heightened Def Con from 0.00396579 to 0.0039658
Heightened Def Con from 0.0039658 to 0.00396581
Heightened Def Con from 0.00396582 to 0.00396582
Heightened Def Con from 0.00396582 to 0.00396583
Heightened Def Con from 0.00396583 to 0.00396584
Heightened Def Con from 0.00396584 to 0.00396584
Heightened Def Con from 0.00396584 to 0.00396585
Heightened Def Con from 0.00396585 to 0.00396586
Heightened Def Con from 0.00396586 to 0.00396586
Heightened Def Con from 0.00396586 to 0.00396587
Heightened Def Con from 0.00396587 to 0.00396588
Heightened Def Con from 0.00396588 to 0.00396589
Heightened Def Con from 0.00396589 to 0.00396589
Heightened Def Con from 0.0039659 to 0.0039659
Heightened Def Con from 0.00396592 to 0.00396593
Heightened Def Con from 0.00396594 to 0.00396594
Heightened Def Con from 0.00396594 to 0.00396594
Heightened Def Con from 0.00396594 to 0.00396595
Heightened Def Con from 0.00396595 to 0.00396596
Heightened Def Con from 0.00396596 to 0.00396597
Heightened Def Con from 0.00396597 to 0.00396597
Heightened Def Con from 0.00396597 to 0.00396598
Heightened Def Con from 0.00396599 to 0.00396599
Heightened Def Con from 0.00396599 to 0.003966
Heightened Def Con from 0.003966 to 0.00396601
Heightened Def Con from 0.00396601 to 0.00396602
Heightened Def Con from 0.00396602 to 0.00396602
Heightened Def Con from 0.00396603 to 0.00396604
Heightened Def Con from 0.00396604 to 0.00396605
Heightened Def Con from 0.00396605 to 0.00396607
Heightened Def Con from 0.00396607 to 0.00396608
Heightened Def Con from 0.00396608 to 0.00396609
Heightened Def Con from 0.00396609 to 0.00396609
Heightened Def Con from 0.0039661 to 0.0039661
Heightened Def Con from 0.0039661 to 0.00396611
Heightened Def Con from 0.00396611 to 0.00396611
Heightened Def Con from 0.00396611 to 0.00396611
Heightened Def Con from 0.00396612 to 0.00396612
Heightened Def Con from 0.00396612 to 0.00396613
Heightened Def Con from 0.00396614 to 0.00396614
Heightened Def Con from 0.00396614 to 0.00396615
Heightened Def Con from 0.00396615 to 0.00396615
Heightened Def Con from 0.00396616 to 0.00396616
Heightened Def Con from 0.00396616 to 0.00396617
Heightened Def Con from 0.00396618 to 0.00396618
Heightened Def Con from 0.00396618 to 0.00396619
Heightened Def Con from 0.0039662 to 0.0039662
Heightened Def Con from 0.00396622 to 0.00396623
Heightened Def Con from 0.00396623 to 0.00396623
Heightened Def Con from 0.00396624 to 0.00396624
Heightened Def Con from 0.00396624 to 0.00396625
Heightened Def Con from 0.00396626 to 0.00396626
Heightened Def Con from 0.00396627 to 0.00396627
Heightened Def Con from 0.00396628 to 0.00396628
Heightened Def Con from 0.00396628 to 0.00396629
Heightened Def Con from 0.00396629 to 0.0039663
Heightened Def Con from 0.0039663 to 0.0039663
Heightened Def Con from 0.0039663 to 0.00396631
Heightened Def Con from 0.00396631 to 0.00396632
Heightened Def Con from 0.00396632 to 0.00396632
Heightened Def Con from 0.00396632 to 0.00396633
Heightened Def Con from 0.00396633 to 0.00396633
Heightened Def Con from 0.00396634 to 0.00396634
Heightened Def Con from 0.00396634 to 0.00396635
Heightened Def Con from 0.00396635 to 0.00396636
Heightened Def Con from 0.00396637 to 0.00396637
Heightened Def Con from 0.00396637 to 0.00396638
Heightened Def Con from 0.00396639 to 0.0039664
Heightened Def Con from 0.0039664 to 0.00396641
Heightened Def Con from 0.00396641 to 0.00396642
Heightened Def Con from 0.00396642 to 0.00396642
Heightened Def Con from 0.00396642 to 0.00396643
Heightened Def Con from 0.00396643 to 0.00396644
Heightened Def Con from 0.00396644 to 0.00396645
Heightened Def Con from 0.00396645 to 0.00396646
Heightened Def Con from 0.00396646 to 0.00396646
Heightened Def Con from 0.00396646 to 0.00396646
Heightened Def Con from 0.00396646 to 0.00396647
Heightened Def Con from 0.00396647 to 0.00396648
Heightened Def Con from 0.00396648 to 0.00396648
Heightened Def Con from 0.00396649 to 0.00396649
Heightened Def Con from 0.00396649 to 0.00396651
Heightened Def Con from 0.00396651 to 0.00396651
Heightened Def Con from 0.00396652 to 0.00396652
Heightened Def Con from 0.00396652 to 0.00396652
Heightened Def Con from 0.00396652 to 0.00396653
Heightened Def Con from 0.00396653 to 0.00396653
Heightened Def Con from 0.00396654 to 0.00396654
Heightened Def Con from 0.00396654 to 0.00396655
Heightened Def Con from 0.00396655 to 0.00396656
Heightened Def Con from 0.00396656 to 0.00396657
Heightened Def Con from 0.00396657 to 0.00396658
Heightened Def Con from 0.00396658 to 0.00396658
Heightened Def Con from 0.00396658 to 0.00396659
Heightened Def Con from 0.00396659 to 0.00396659
Heightened Def Con from 0.0039666 to 0.0039666
Heightened Def Con from 0.0039666 to 0.0039666
Heightened Def Con from 0.0039666 to 0.00396661
Heightened Def Con from 0.00396661 to 0.00396662
Heightened Def Con from 0.00396662 to 0.00396663
Heightened Def Con from 0.00396663 to 0.00396664
Heightened Def Con from 0.00396664 to 0.00396665
Heightened Def Con from 0.00396666 to 0.00396666
Heightened Def Con from 0.00396666 to 0.00396667
Heightened Def Con from 0.00396667 to 0.00396667
Heightened Def Con from 0.00396667 to 0.00396668
Heightened Def Con from 0.00396669 to 0.00396669
Heightened Def Con from 0.0039667 to 0.00396671
Heightened Def Con from 0.00396671 to 0.00396671
Heightened Def Con from 0.00396671 to 0.00396672
Heightened Def Con from 0.00396672 to 0.00396673
Heightened Def Con from 0.00396673 to 0.00396674
Heightened Def Con from 0.00396675 to 0.00396676
Heightened Def Con from 0.00396676 to 0.00396677
Heightened Def Con from 0.00396677 to 0.00396677
Heightened Def Con from 0.00396677 to 0.00396678
Heightened Def Con from 0.00396678 to 0.00396678
Heightened Def Con from 0.00396679 to 0.0039668
Heightened Def Con from 0.0039668 to 0.00396681
Heightened Def Con from 0.00396681 to 0.00396682
Heightened Def Con from 0.00396682 to 0.00396682
Heightened Def Con from 0.00396683 to 0.00396683
Heightened Def Con from 0.00396684 to 0.00396684
Heightened Def Con from 0.00396685 to 0.00396686
Heightened Def Con from 0.00396686 to 0.00396686
Heightened Def Con from 0.00396686 to 0.00396686
Heightened Def Con from 0.00396687 to 0.00396687
Heightened Def Con from 0.00396687 to 0.00396688
Heightened Def Con from 0.00396688 to 0.00396689
Heightened Def Con from 0.00396689 to 0.00396689
Heightened Def Con from 0.00396689 to 0.00396689
Heightened Def Con from 0.0039669 to 0.0039669
Heightened Def Con from 0.0039669 to 0.0039669
Heightened Def Con from 0.00396691 to 0.00396691
Heightened Def Con from 0.00396691 to 0.00396692
Heightened Def Con from 0.00396692 to 0.00396692
Heightened Def Con from 0.00396692 to 0.00396693
Heightened Def Con from 0.00396693 to 0.00396693
Heightened Def Con from 0.00396694 to 0.00396694
Heightened Def Con from 0.00396694 to 0.00396695
Heightened Def Con from 0.00396695 to 0.00396696
Heightened Def Con from 0.00396696 to 0.00396697
Heightened Def Con from 0.00396697 to 0.00396698
Heightened Def Con from 0.00396698 to 0.00396698
Heightened Def Con from 0.00396698 to 0.00396699
Heightened Def Con from 0.00396699 to 0.003967
Heightened Def Con from 0.003967 to 0.003967
Heightened Def Con from 0.00396701 to 0.00396701
Heightened Def Con from 0.00396701 to 0.00396701
Heightened Def Con from 0.00396702 to 0.00396702
Heightened Def Con from 0.00396702 to 0.00396704
Heightened Def Con from 0.00396704 to 0.00396705
Heightened Def Con from 0.00396705 to 0.00396705
Heightened Def Con from 0.00396705 to 0.00396706
Heightened Def Con from 0.00396706 to 0.00396706
Heightened Def Con from 0.00396706 to 0.00396707
Heightened Def Con from 0.00396707 to 0.00396708
Heightened Def Con from 0.00396708 to 0.00396709
Heightened Def Con from 0.00396709 to 0.00396709
Heightened Def Con from 0.0039671 to 0.00396711
Heightened Def Con from 0.00396711 to 0.00396711
Heightened Def Con from 0.00396711 to 0.00396712
Heightened Def Con from 0.00396712 to 0.00396712
Heightened Def Con from 0.00396712 to 0.00396713
Heightened Def Con from 0.00396713 to 0.00396713
Heightened Def Con from 0.00396713 to 0.00396714
Heightened Def Con from 0.00396714 to 0.00396715
Heightened Def Con from 0.00396715 to 0.00396716
Heightened Def Con from 0.00396716 to 0.00396716
Heightened Def Con from 0.00396716 to 0.00396716
Heightened Def Con from 0.00396716 to 0.00396718
Heightened Def Con from 0.00396718 to 0.00396719
Heightened Def Con from 0.00396719 to 0.00396719
Heightened Def Con from 0.00396719 to 0.0039672
Heightened Def Con from 0.0039672 to 0.00396721
Heightened Def Con from 0.00396721 to 0.00396722
Heightened Def Con from 0.00396722 to 0.00396723
Heightened Def Con from 0.00396724 to 0.00396724
Heightened Def Con from 0.00396724 to 0.00396724
Heightened Def Con from 0.00396724 to 0.00396725
Heightened Def Con from 0.00396726 to 0.00396726
Heightened Def Con from 0.00396726 to 0.00396728
Heightened Def Con from 0.00396728 to 0.00396729
Heightened Def Con from 0.00396729 to 0.00396729
Heightened Def Con from 0.00396729 to 0.0039673
Heightened Def Con from 0.0039673 to 0.00396731
Heightened Def Con from 0.00396731 to 0.00396732
Heightened Def Con from 0.00396732 to 0.00396733
Heightened Def Con from 0.00396733 to 0.00396733
Heightened Def Con from 0.00396733 to 0.00396735
Heightened Def Con from 0.00396736 to 0.00396736
Heightened Def Con from 0.00396736 to 0.00396737
Heightened Def Con from 0.00396737 to 0.00396737
Heightened Def Con from 0.00396737 to 0.00396738
Heightened Def Con from 0.00396738 to 0.00396738
Heightened Def Con from 0.00396738 to 0.00396739
Heightened Def Con from 0.00396739 to 0.00396739
Heightened Def Con from 0.00396739 to 0.0039674
Heightened Def Con from 0.0039674 to 0.00396741
Heightened Def Con from 0.00396741 to 0.00396743
Heightened Def Con from 0.00396743 to 0.00396744
Heightened Def Con from 0.00396745 to 0.00396745
Heightened Def Con from 0.00396745 to 0.00396746
Heightened Def Con from 0.00396746 to 0.00396747
Heightened Def Con from 0.00396747 to 0.00396748
Heightened Def Con from 0.00396748 to 0.00396748
Heightened Def Con from 0.00396748 to 0.00396749
Heightened Def Con from 0.00396749 to 0.0039675
Heightened Def Con from 0.0039675 to 0.00396751
Heightened Def Con from 0.00396751 to 0.00396752
Heightened Def Con from 0.00396752 to 0.00396753
Heightened Def Con from 0.00396753 to 0.00396753
Heightened Def Con from 0.00396753 to 0.00396754
Heightened Def Con from 0.00396754 to 0.00396754
Heightened Def Con from 0.00396754 to 0.00396754
Heightened Def Con from 0.00396755 to 0.00396756
Heightened Def Con from 0.00396756 to 0.00396757
Heightened Def Con from 0.00396757 to 0.00396758
Heightened Def Con from 0.00396758 to 0.00396759
Heightened Def Con from 0.00396759 to 0.00396759
Heightened Def Con from 0.00396759 to 0.00396759
Heightened Def Con from 0.00396759 to 0.0039676
Heightened Def Con from 0.0039676 to 0.0039676
Heightened Def Con from 0.00396761 to 0.00396762
Heightened Def Con from 0.00396762 to 0.00396762
Heightened Def Con from 0.00396762 to 0.00396762
Heightened Def Con from 0.00396762 to 0.00396763
Heightened Def Con from 0.00396763 to 0.00396764
Heightened Def Con from 0.00396764 to 0.00396765
Heightened Def Con from 0.00396765 to 0.00396765
Heightened Def Con from 0.00396765 to 0.00396766
Heightened Def Con from 0.00396767 to 0.00396767
Heightened Def Con from 0.00396767 to 0.00396768
Heightened Def Con from 0.00396768 to 0.00396769
Heightened Def Con from 0.00396769 to 0.0039677
Heightened Def Con from 0.0039677 to 0.0039677
Heightened Def Con from 0.00396771 to 0.00396772
Heightened Def Con from 0.00396772 to 0.00396773
Heightened Def Con from 0.00396773 to 0.00396774
Heightened Def Con from 0.00396774 to 0.00396774
Heightened Def Con from 0.00396774 to 0.00396775
Heightened Def Con from 0.00396775 to 0.00396776
Heightened Def Con from 0.00396776 to 0.00396777
Heightened Def Con from 0.00396777 to 0.00396777
Heightened Def Con from 0.00396777 to 0.00396778
Heightened Def Con from 0.00396778 to 0.00396779
Heightened Def Con from 0.00396779 to 0.00396779
Heightened Def Con from 0.00396779 to 0.0039678
Heightened Def Con from 0.0039678 to 0.00396781
Heightened Def Con from 0.00396781 to 0.00396781
Heightened Def Con from 0.00396782 to 0.00396782
Heightened Def Con from 0.00396782 to 0.00396782
Heightened Def Con from 0.00396782 to 0.00396783
Heightened Def Con from 0.00396783 to 0.00396783
Heightened Def Con from 0.00396783 to 0.00396784
Heightened Def Con from 0.00396784 to 0.00396784
Heightened Def Con from 0.00396784 to 0.00396785
Heightened Def Con from 0.00396785 to 0.00396786
Heightened Def Con from 0.00396786 to 0.00396788
Heightened Def Con from 0.00396788 to 0.00396789
Heightened Def Con from 0.00396789 to 0.00396789
Heightened Def Con from 0.00396789 to 0.0039679
Heightened Def Con from 0.0039679 to 0.00396791
Heightened Def Con from 0.00396791 to 0.00396792
Heightened Def Con from 0.00396792 to 0.00396792
Heightened Def Con from 0.00396792 to 0.00396794
Heightened Def Con from 0.00396795 to 0.00396795
Heightened Def Con from 0.00396795 to 0.00396796
Heightened Def Con from 0.00396796 to 0.00396797
Heightened Def Con from 0.00396797 to 0.00396798
Heightened Def Con from 0.00396799 to 0.00396799
Heightened Def Con from 0.003968 to 0.003968
Heightened Def Con from 0.003968 to 0.00396801
Heightened Def Con from 0.00396802 to 0.00396802
Heightened Def Con from 0.00396802 to 0.00396804
Heightened Def Con from 0.00396804 to 0.00396804
Heightened Def Con from 0.00396805 to 0.00396805
Heightened Def Con from 0.00396805 to 0.00396805
Heightened Def Con from 0.00396805 to 0.00396806
Heightened Def Con from 0.00396807 to 0.00396807
Heightened Def Con from 0.00396807 to 0.00396808
Heightened Def Con from 0.00396808 to 0.00396808
Heightened Def Con from 0.00396809 to 0.00396809
Heightened Def Con from 0.0039681 to 0.00396811
Heightened Def Con from 0.00396811 to 0.00396811
Heightened Def Con from 0.00396811 to 0.00396813
Heightened Def Con from 0.00396813 to 0.00396814
Heightened Def Con from 0.00396814 to 0.00396816
Heightened Def Con from 0.00396816 to 0.00396816
Heightened Def Con from 0.00396816 to 0.00396817
Heightened Def Con from 0.00396817 to 0.00396817
Heightened Def Con from 0.00396818 to 0.00396819
Heightened Def Con from 0.00396819 to 0.0039682
Heightened Def Con from 0.0039682 to 0.00396821
Heightened Def Con from 0.00396821 to 0.00396822
Heightened Def Con from 0.00396822 to 0.00396823
Heightened Def Con from 0.00396823 to 0.00396823
Heightened Def Con from 0.00396824 to 0.00396824
Heightened Def Con from 0.00396824 to 0.00396825
Heightened Def Con from 0.00396825 to 0.00396826
Heightened Def Con from 0.00396826 to 0.00396827
Heightened Def Con from 0.00396827 to 0.00396827
Heightened Def Con from 0.00396827 to 0.00396827
Heightened Def Con from 0.00396828 to 0.00396828
Heightened Def Con from 0.00396828 to 0.00396829
Heightened Def Con from 0.00396829 to 0.0039683
Heightened Def Con from 0.0039683 to 0.0039683
Heightened Def Con from 0.00396831 to 0.00396831
Heightened Def Con from 0.00396831 to 0.00396831
Heightened Def Con from 0.00396831 to 0.00396832
Heightened Def Con from 0.00396833 to 0.00396834
Heightened Def Con from 0.00396834 to 0.00396835
Heightened Def Con from 0.00396835 to 0.00396835
Heightened Def Con from 0.00396835 to 0.00396836
Heightened Def Con from 0.00396836 to 0.00396836
Heightened Def Con from 0.00396836 to 0.00396837
Heightened Def Con from 0.00396837 to 0.00396837
Heightened Def Con from 0.00396837 to 0.00396838
Heightened Def Con from 0.00396838 to 0.00396838
Heightened Def Con from 0.00396839 to 0.00396839

Date: Sat Jan 30 12:51:39 2016
Total elapsed time: 1288.425 seconds.

tnom = 27
temp = 27
method = modified trap
totiter = 63762660
traniter = 63757825
tranpoints = 31555358
accept = 16952621
rejected = 14610464
matrix size = 31
fillins = 28
solver = Normal
Thread vector: 20.7/12.0[2] 6.8/4.1[2] 3.0/10.5[1]