Circuit: * Z:\Users\aviatorblue\Documents\Senior Project\Electrical_Design\transimpedance_amplifier.asc

WARNING: Node N007 is floating.

Direct Newton iteration failed to find .op point.  (Use ".option noopiter" to skip.)
Starting Gmin stepping
Gmin = 10
Gmin = 1.07374
vernier = 0.5
vernier = 0.25
vernier = 0.125
vernier = 0.0625
vernier = 0.03125
Gmin = 1.0412
vernier = 0.015625
vernier = 0.0078125
Gmin = 1.0132
vernier = 0.00390625
vernier = 0.00195313
Gmin = 1.00827
vernier = 0.00260417
vernier = 0.00130208
Gmin = 1.00515
vernier = 0.000651042
vernier = 0.000868055
vernier = 0.000434028
Gmin = 1.00434
vernier = 0.000578703
vernier = 0.000434027
Gmin = 1.00339
Gmin = 0
Gmin stepping failed

Starting source stepping with srcstepmethod=0
Source Step = 3.0303%
Source Step = 33.3333%
Source Step = 63.6364%
Source Step = 93.9394%
Source stepping succeeded in finding the operating point.


Date: Sat Jan 30 02:05:38 2016
Total elapsed time: 1.223 seconds.

tnom = 27
temp = 27
method = modified trap
totiter = 61092
traniter = 56265
tranpoints = 23762
accept = 16508
rejected = 7254
matrix size = 31
fillins = 27
solver = Normal
Thread vector: 16.1/11.7[2] 5.4/4.5[2] 3.0/3.8[1] 0.3/0.9[1]  2592/500
Matrix Compiler1: 2.33 KB object code size  1.1/0.5/[0.4]
Matrix Compiler2: 2.94 KB object code size  0.5/0.7/[0.4]


