Circuit: * Z:\Users\aviatorblue\Documents\sFPI\Electrical_Design\transimpedance_amplifier.asc

Direct Newton iteration failed to find .op point.  (Use ".option noopiter" to skip.)
Starting Gmin stepping
Gmin = 10
Gmin = 1.07374
vernier = 0.5
vernier = 0.25
vernier = 0.125
vernier = 0.0625
vernier = 0.03125
Gmin = 1.0412
vernier = 0.015625
vernier = 0.0078125
Gmin = 1.0132
vernier = 0.00390625
vernier = 0.00195313
Gmin = 1.00827
vernier = 0.00260417
vernier = 0.00130208
Gmin = 1.00515
vernier = 0.000651042
vernier = 0.000868055
vernier = 0.000434028
Gmin = 1.00434
vernier = 0.000578703
vernier = 0.000434027
Gmin = 1.00339
Gmin = 0
Gmin stepping failed

Starting source stepping with srcstepmethod=0
Source Step = 3.0303%
Source Step = 33.3333%
Source Step = 63.6364%
Source Step = 93.9394%
Source stepping succeeded in finding the operating point.


Date: Wed Dec 09 20:40:08 2015
Total elapsed time: 0.867 seconds.

tnom = 27
temp = 27
method = modified trap
totiter = 7183
traniter = 2366
tranpoints = 1134
accept = 1090
rejected = 44
matrix size = 28
fillins = 34
solver = Normal
Thread vector: 34.8/26.1[3] 7.8/5.4[3] 4.5/2.9[3] 0.4/1.0[1]  2592/500
Matrix Compiler1: 3.36 KB object code size  1.4/0.9/[0.5]
Matrix Compiler2: 3.67 KB object code size  0.8/1.2/[0.6]


